*SRC=1N4001;DI_1N4001;Diodes;Si;  50.0V  1.00A  3.00us   Diodes, Inc. diode
.MODEL 1N4001_DI D (
+ IS=76.9p
+ RS=42.0m
+ BV=50.0
+ IBV=5.00u
+ CJO=39.8p
+ M=0.333
+ N=1.45
+ TT=4.32u)
