.model 1N4007_WIKI D(
+ Is=7.02767n
+ Rs=0.0341512
+ N=1.80803
+ Tt=1e-07
+ Cjo=1e-11
+ Vj=0.7
+ M=0.5
+ Eg=1.05743
+ Xti=5
+ Fc=0.5
+ BV=1000
+ Ibv=5e-08
+ Mfg=OnSemiconductor
+ Type=Silicon)
