.model 1N4004_WIKI D(
+ Is=500p
+ Rs=0.12
+ N=1.6
+ Tt=4u
+ Cjo=40p
+ M=0.35
+ BV=400
+ Ibv=5.00u
+ Mfg=BobCordellBook
+ Type=Silicon)
