.model 1N4148_MS D (
+ Is=2.52n
+ Rs=.568
+ N=1.752
+ Cjo=4p
+ M=.4
+ tt=20n
+ Iave=200m
+ Vpk=75
+ mfg=Motorola
+ type=silicon)
