.model BC107 NPN (
+ Is=40.72f
+ Vaf=21.03
+ Bf=407
+ Ise=40.72f
+ Ne=1.305
+ Ikf=1
+ Xtb=1.5
+ Isc=594.8p
+ Nc=2.033
+ Ikr=3.726
+ Rc=1.393
+ Cjc=6p
+ Mjc=.3821
+ Cje=12.5p
+ Mje=.4869
+ Vje=.5391
+ Tr=114n
+ Tf=441.1p )
