.MODEL BC557A_NXP PNP (
+ IS=2.059E-14
+ ISE=2.971f
+ ISC=1.339E-14
+ XTI=3
+ BF=227.3
+ BR=7.69
+ IKF=0.08719
+ IKR=0.07646
+ XTB=1.5
+ VAF=37.2
+ VAR=11.42
+ VJE=0.5912
+ VJC=0.1
+ RE=0.688
+ RC=0.6437
+ RB=1 RBM=1
+ IRB=1E-06
+ CJE=1.4E-11
+ CJC=1.113E-11
+ XCJC=0.6288
+ FC=0.7947
+ NF=1.003
+ NR=1.007
+ NE=1.316
+ NC=1.15
+ MJE=0.3572
+ MJC=0.3414
+ TF=7.046E-10
+ TR=1m2
+ ITF=0.1947
+ VTF=5.367
+ XTF=4.217
+ EG=1.11
+ VCEO=45
+ ICRATING=100M
+ MFG=PHILIPS )
