.model IRFP9240_IR VDMOS (
+ pchan
+ Rg=3
+ Vto=-4
+ Rd=200m
+ Rs=50m
+ Rb=100m
+ Kp=8.2
+ Lambda=.10
+ Cgdmax=1.8n
+ Cgdmin=.07n
+ Cgs=.77n
+ Cjo=.77n
+ Is=76p
+ Vds=-200
+ Ron=500m
+ Qg=44n
+ mfg=International_Rectifier)
