.model MBR20100CT_MS D (
+ Is=10u
+ Rs=.005
+ N=1.5
+ Ikf=.3
+ Isr=10u
+ Nr=3
+ Cjo=1e-11
+ Vj=.7
+ Iave=10
+ Vpk=100
+ mfg=Motorola
+ type=Schottky)
