.model MUR460_GI D (
+ Is=149n
+ Rs=.0384
+ N=2
+ EG=1.285
+ XTI=.5
+ BV=800
+ IBV=1e-05
+ Cjo=126.4p
+ Vj=1.34
+ M=.52
+ tt=44.4n
+ Iave=4
+ Vpk=600
+ mfg=GI
+ type=silicon)
