*======================================================================
* SPICE Model generated by Coilcraft
* Coilcraft Part Number : 0201DS-0N5
* Inductance = 0.5nH
*======================================================================
* Model Parameters:
*   Valid Frequency Range = 0.001GHz-26GHz
*   Ambient Temperature = 25 degC
*   Inductor Frequency Model
*   Use model for Frequency Domain simulations
*======================================================================
.subckt 0201DS-0N5_freq port1 port2 PARAMS: Cpar=0.032pF Ind=0.5nH
X1 port1 port2 Model2A PARAMS:
+ R1=15
+ R2=0.02
+ C= {Cpar}
+ K1=0.0000026
+ K2=0
+ K3= {Ind}
+ K4=0
+ K5=0
+ L=0
+ Is=0
+ a=0
+ L_Z0=0
+ L_EL=0
+ L_F0=0E6
+ PkZ=1014.10671
.ends 0201DS-0N5_freq

*======================================================================
* SPICE Model generated by Coilcraft
* Coilcraft Part Number : 0201DS-0N6
* Inductance = 0.6nH
*======================================================================
* Model Parameters:
*   Valid Frequency Range = 0.001GHz-26GHz
*   Ambient Temperature = 25 degC
*   Inductor Frequency Model
*   Use model for Frequency Domain simulations
*======================================================================
.subckt 0201DS-0N6_freq port1 port2 PARAMS: Cpar=0.03pF Ind=0.6nH
X1 port1 port2 Model2A PARAMS:
+ R1=15
+ R2=0.03
+ C= {Cpar}
+ K1=0.0000024
+ K2=0
+ K3= {Ind}
+ K4=0
+ K5=0
+ L=0
+ Is=0
+ a=0
+ L_Z0=0
+ L_EL=0
+ L_F0=0E6
+ PkZ=1300.5473
.ends 0201DS-0N6_freq

*======================================================================
* SPICE Model generated by Coilcraft
* Coilcraft Part Number : 0201DS-1N3
* Inductance = 1.3nH
*======================================================================
* Model Parameters:
*   Valid Frequency Range = 0.001GHz-26GHz
*   Ambient Temperature = 25 degC
*   Inductor Frequency Model
*   Use model for Frequency Domain simulations
*======================================================================
.subckt 0201DS-1N3_freq port1 port2 PARAMS: Cpar=0.023pF Ind=1.3nH
X1 port1 port2 Model2A PARAMS:
+ R1=15
+ R2=0.048
+ C= {Cpar}
+ K1=0.0000048
+ K2=0
+ K3= {Ind}
+ K4=0
+ K5=0
+ L=0
+ Is=0
+ a=0
+ L_Z0=0
+ L_EL=0
+ L_F0=0E6
+ PkZ=3580.22387
.ends 0201DS-1N3_freq

*======================================================================
* SPICE Model generated by Coilcraft
* Coilcraft Part Number : 0201DS-1N4
* Inductance = 1.4nH
*======================================================================
* Model Parameters:
*   Valid Frequency Range = 0.001GHz-26GHz
*   Ambient Temperature = 25 degC
*   Inductor Frequency Model
*   Use model for Frequency Domain simulations
*======================================================================
.subckt 0201DS-1N4_freq port1 port2 PARAMS: Cpar=0.02pF Ind=1.4nH
X1 port1 port2 Model2A PARAMS:
+ R1=15
+ R2=0.08
+ C= {Cpar}
+ K1=0.0000074
+ K2=0
+ K3= {Ind}
+ K4=0
+ K5=0
+ L=0
+ Is=0
+ a=0
+ L_Z0=0
+ L_EL=0
+ L_F0=0E6
+ PkZ=4305.89799
.ends 0201DS-1N4_freq

*======================================================================
* SPICE Model generated by Coilcraft
* Coilcraft Part Number : 0201DS-1N5
* Inductance = 1.5nH
*======================================================================
* Model Parameters:
*   Valid Frequency Range = 0.001GHz-26GHz
*   Ambient Temperature = 25 degC
*   Inductor Frequency Model
*   Use model for Frequency Domain simulations
*======================================================================
.subckt 0201DS-1N5_freq port1 port2 PARAMS: Cpar=0.021pF Ind=1.5nH
X1 port1 port2 Model2A PARAMS:
+ R1=15
+ R2=0.09
+ C= {Cpar}
+ K1=0.0000073
+ K2=0
+ K3= {Ind}
+ K4=0
+ K5=0
+ L=0
+ Is=0
+ a=0
+ L_Z0=0
+ L_EL=0
+ L_F0=0E6
+ PkZ=4408.2758
.ends 0201DS-1N5_freq

*======================================================================
* SPICE Model generated by Coilcraft
* Coilcraft Part Number : 0201DS-2N2
* Inductance = 2.2nH
*======================================================================
* Model Parameters:
*   Valid Frequency Range = 0.001GHz-20GHz
*   Ambient Temperature = 25 degC
*   Inductor Frequency Model
*   Use model for Frequency Domain simulations
*======================================================================
.subckt 0201DS-2N2_freq port1 port2 PARAMS: Cpar=0.027pF Ind=2.2nH
X1 port1 port2 Model2A PARAMS:
+ R1=14
+ R2=0.07
+ C= {Cpar}
+ K1=0.00000945
+ K2=0
+ K3= {Ind}
+ K4=0
+ K5=0
+ L=0
+ Is=0
+ a=0
+ L_Z0=0
+ L_EL=0
+ L_F0=0E6
+ PkZ=5311.98686
.ends 0201DS-2N2_freq

*======================================================================
* SPICE Model generated by Coilcraft
* Coilcraft Part Number : 0201DS-2N3
* Inductance = 2.3nH
*======================================================================
* Model Parameters:
*   Valid Frequency Range = 0.001GHz-20GHz
*   Ambient Temperature = 25 degC
*   Inductor Frequency Model
*   Use model for Frequency Domain simulations
*======================================================================
.subckt 0201DS-2N3_freq port1 port2 PARAMS: Cpar=0.028pF Ind=2.3nH
X1 port1 port2 Model2A PARAMS:
+ R1=13
+ R2=0.07
+ C= {Cpar}
+ K1=0.0000074
+ K2=0
+ K3= {Ind}
+ K4=0
+ K5=0
+ L=0
+ Is=0
+ a=0
+ L_Z0=0
+ L_EL=0
+ L_F0=0E6
+ PkZ=5855.8681
.ends 0201DS-2N3_freq

*======================================================================
* SPICE Model generated by Coilcraft
* Coilcraft Part Number : 0201DS-2N4
* Inductance = 2.4nH
*======================================================================
* Model Parameters:
*   Valid Frequency Range = 0.001GHz-20GHz
*   Ambient Temperature = 25 degC
*   Inductor Frequency Model
*   Use model for Frequency Domain simulations
*======================================================================
.subckt 0201DS-2N4_freq port1 port2 PARAMS: Cpar=0.026pF Ind=2.4nH
X1 port1 port2 Model2A PARAMS:
+ R1=8
+ R2=0.082
+ C= {Cpar}
+ K1=0.0000098
+ K2=0
+ K3= {Ind}
+ K4=0
+ K5=0
+ L=0
+ Is=0
+ a=0
+ L_Z0=0
+ L_EL=0
+ L_F0=0E6
+ PkZ=9832.9271
.ends 0201DS-2N4_freq

*======================================================================
* SPICE Model generated by Coilcraft
* Coilcraft Part Number : 0201DS-2N5
* Inductance = 2.5nH
*======================================================================
* Model Parameters:
*   Valid Frequency Range = 0.001GHz-20GHz
*   Ambient Temperature = 25 degC
*   Inductor Frequency Model
*   Use model for Frequency Domain simulations
*======================================================================
.subckt 0201DS-2N5_freq port1 port2 PARAMS: Cpar=0.025pF Ind=2.5nH
X1 port1 port2 Model2A PARAMS:
+ R1=13
+ R2=0.165
+ C= {Cpar}
+ K1=0.0000102
+ K2=0
+ K3= {Ind}
+ K4=0
+ K5=0
+ L=0
+ Is=0
+ a=0
+ L_Z0=0
+ L_EL=0
+ L_F0=0E6
+ PkZ=6927.82161
.ends 0201DS-2N5_freq

*======================================================================
* SPICE Model generated by Coilcraft
* Coilcraft Part Number : 0201DS-3N3
* Inductance = 3.3nH
*======================================================================
* Model Parameters:
*   Valid Frequency Range = 0.001GHz-16GHz
*   Ambient Temperature = 25 degC
*   Inductor Frequency Model
*   Use model for Frequency Domain simulations
*======================================================================
.subckt 0201DS-3N3_freq port1 port2 PARAMS: Cpar=0.032pF Ind=3.3nH
X1 port1 port2 Model2A PARAMS:
+ R1=10
+ R2=0.08
+ C= {Cpar}
+ K1=0.000012
+ K2=0
+ K3= {Ind}
+ K4=0
+ K5=0
+ L=0
+ Is=0
+ a=0
+ L_Z0=0
+ L_EL=0
+ L_F0=0E6
+ PkZ=8977.06918
.ends 0201DS-3N3_freq

*======================================================================
* SPICE Model generated by Coilcraft
* Coilcraft Part Number : 0201DS-3N4
* Inductance = 3.4nH
*======================================================================
* Model Parameters:
*   Valid Frequency Range = 0.001GHz-16GHz
*   Ambient Temperature = 25 degC
*   Inductor Frequency Model
*   Use model for Frequency Domain simulations
*======================================================================
.subckt 0201DS-3N4_freq port1 port2 PARAMS: Cpar=0.03pF Ind=3.4nH
X1 port1 port2 Model2A PARAMS:
+ R1=16
+ R2=0.08
+ C= {Cpar}
+ K1=0.0000123
+ K2=0
+ K3= {Ind}
+ K4=0
+ K5=0
+ L=0
+ Is=0
+ a=0
+ L_Z0=0
+ L_EL=0
+ L_F0=0E6
+ PkZ=6467.36468
.ends 0201DS-3N4_freq

*======================================================================
* SPICE Model generated by Coilcraft
* Coilcraft Part Number : 0201DS-3N5
* Inductance = 3.5nH
*======================================================================
* Model Parameters:
*   Valid Frequency Range = 0.001GHz-16GHz
*   Ambient Temperature = 25 degC
*   Inductor Frequency Model
*   Use model for Frequency Domain simulations
*======================================================================
.subckt 0201DS-3N5_freq port1 port2 PARAMS: Cpar=0.03pF Ind=3.5nH
X1 port1 port2 Model2A PARAMS:
+ R1=11
+ R2=0.08
+ C= {Cpar}
+ K1=0.0000123
+ K2=0
+ K3= {Ind}
+ K4=0
+ K5=0
+ L=0
+ Is=0
+ a=0
+ L_Z0=0
+ L_EL=0
+ L_F0=0E6
+ PkZ=9313.82164
.ends 0201DS-3N5_freq

*======================================================================
* SPICE Model generated by Coilcraft
* Coilcraft Part Number : 0201DS-3N6
* Inductance = 3.6nH
*======================================================================
* Model Parameters:
*   Valid Frequency Range = 0.001GHz-16GHz
*   Ambient Temperature = 25 degC
*   Inductor Frequency Model
*   Use model for Frequency Domain simulations
*======================================================================
.subckt 0201DS-3N6_freq port1 port2 PARAMS: Cpar=0.03pF Ind=3.6nH
X1 port1 port2 Model2A PARAMS:
+ R1=10
+ R2=0.105
+ C= {Cpar}
+ K1=0.000013
+ K2=0
+ K3= {Ind}
+ K4=0
+ K5=0
+ L=0
+ Is=0
+ a=0
+ L_Z0=0
+ L_EL=0
+ L_F0=0E6
+ PkZ=10341.5234
.ends 0201DS-3N6_freq

*======================================================================
* SPICE Model generated by Coilcraft
* Coilcraft Part Number : 0201DS-3N7
* Inductance = 3.7nH
*======================================================================
* Model Parameters:
*   Valid Frequency Range = 0.001GHz-16GHz
*   Ambient Temperature = 25 degC
*   Inductor Frequency Model
*   Use model for Frequency Domain simulations
*======================================================================
.subckt 0201DS-3N7_freq port1 port2 PARAMS: Cpar=0.029pF Ind=3.7nH
X1 port1 port2 Model2A PARAMS:
+ R1=10
+ R2=0.105
+ C= {Cpar}
+ K1=0.000014
+ K2=0
+ K3= {Ind}
+ K4=0
+ K5=0
+ L=0
+ Is=0
+ a=0
+ L_Z0=0
+ L_EL=0
+ L_F0=0E6
+ PkZ=10876.4448
.ends 0201DS-3N7_freq

*======================================================================
* SPICE Model generated by Coilcraft
* Coilcraft Part Number : 0201DS-3N8
* Inductance = 3.8nH
*======================================================================
* Model Parameters:
*   Valid Frequency Range = 0.001GHz-16GHz
*   Ambient Temperature = 25 degC
*   Inductor Frequency Model
*   Use model for Frequency Domain simulations
*======================================================================
.subckt 0201DS-3N8_freq port1 port2 PARAMS: Cpar=0.027pF Ind=3.8nH
X1 port1 port2 Model2A PARAMS:
+ R1=17
+ R2=0.18
+ C= {Cpar}
+ K1=0.0000125
+ K2=0
+ K3= {Ind}
+ K4=0
+ K5=0
+ L=0
+ Is=0
+ a=0
+ L_Z0=0
+ L_EL=0
+ L_F0=0E6
+ PkZ=7588.23249
.ends 0201DS-3N8_freq

*======================================================================
* SPICE Model generated by Coilcraft
* Coilcraft Part Number : 0201DS-3N9
* Inductance = 3.9nH
*======================================================================
* Model Parameters:
*   Valid Frequency Range = 0.001GHz-16GHz
*   Ambient Temperature = 25 degC
*   Inductor Frequency Model
*   Use model for Frequency Domain simulations
*======================================================================
.subckt 0201DS-3N9_freq port1 port2 PARAMS: Cpar=0.025pF Ind=3.9nH
X1 port1 port2 Model2A PARAMS:
+ R1=20
+ R2=0.24
+ C= {Cpar}
+ K1=0.000014
+ K2=0
+ K3= {Ind}
+ K4=0
+ K5=0
+ L=0
+ Is=0
+ a=0
+ L_Z0=0
+ L_EL=0
+ L_F0=0E6
+ PkZ=7172.87745
.ends 0201DS-3N9_freq

*======================================================================
* SPICE Model generated by Coilcraft
* Coilcraft Part Number : 0201DS-4N8
* Inductance = 4.8nH
*======================================================================
* Model Parameters:
*   Valid Frequency Range = 0.001GHz-16GHz
*   Ambient Temperature = 25 degC
*   Inductor Frequency Model
*   Use model for Frequency Domain simulations
*======================================================================
.subckt 0201DS-4N8_freq port1 port2 PARAMS: Cpar=0.032pF Ind=4.8nH
X1 port1 port2 Model2A PARAMS:
+ R1=5
+ R2=0.096
+ C= {Cpar}
+ K1=0.000023
+ K2=0
+ K3= {Ind}
+ K4=0
+ K5=0
+ L=0
+ Is=0
+ a=0
+ L_Z0=0
+ L_EL=0
+ L_F0=0E6
+ PkZ=19722.4361
.ends 0201DS-4N8_freq

*======================================================================
* SPICE Model generated by Coilcraft
* Coilcraft Part Number : 0201DS-4N9
* Inductance = 4.9nH
*======================================================================
* Model Parameters:
*   Valid Frequency Range = 0.001GHz-16GHz
*   Ambient Temperature = 25 degC
*   Inductor Frequency Model
*   Use model for Frequency Domain simulations
*======================================================================
.subckt 0201DS-4N9_freq port1 port2 PARAMS: Cpar=0.031pF Ind=4.9nH
X1 port1 port2 Model2A PARAMS:
+ R1=19
+ R2=0.13
+ C= {Cpar}
+ K1=0.000022
+ K2=0
+ K3= {Ind}
+ K4=0
+ K5=0
+ L=0
+ Is=0
+ a=0
+ L_Z0=0
+ L_EL=0
+ L_F0=0E6
+ PkZ=7360.49738
.ends 0201DS-4N9_freq

*======================================================================
* SPICE Model generated by Coilcraft
* Coilcraft Part Number : 0201DS-5N0
* Inductance = 5nH
*======================================================================
* Model Parameters:
*   Valid Frequency Range = 0.001GHz-16GHz
*   Ambient Temperature = 25 degC
*   Inductor Frequency Model
*   Use model for Frequency Domain simulations
*======================================================================
.subckt 0201DS-5N0_freq port1 port2 PARAMS: Cpar=0.029pF Ind=5nH
X1 port1 port2 Model2A PARAMS:
+ R1=25
+ R2=0.13
+ C= {Cpar}
+ K1=0.0000231
+ K2=0
+ K3= {Ind}
+ K4=0
+ K5=0
+ L=0
+ Is=0
+ a=0
+ L_Z0=0
+ L_EL=0
+ L_F0=0E6
+ PkZ=6245.84056
.ends 0201DS-5N0_freq

*======================================================================
* SPICE Model generated by Coilcraft
* Coilcraft Part Number : 0201DS-5N1
* Inductance = 5.1nH
*======================================================================
* Model Parameters:
*   Valid Frequency Range = 0.001GHz-16GHz
*   Ambient Temperature = 25 degC
*   Inductor Frequency Model
*   Use model for Frequency Domain simulations
*======================================================================
.subckt 0201DS-5N1_freq port1 port2 PARAMS: Cpar=0.03pF Ind=5.1nH
X1 port1 port2 Model2A PARAMS:
+ R1=11
+ R2=0.13
+ C= {Cpar}
+ K1=0.0000219
+ K2=0
+ K3= {Ind}
+ K4=0
+ K5=0
+ L=0
+ Is=0
+ a=0
+ L_Z0=0
+ L_EL=0
+ L_F0=0E6
+ PkZ=12612.2205
.ends 0201DS-5N1_freq

*======================================================================
* SPICE Model generated by Coilcraft
* Coilcraft Part Number : 0201DS-5N2
* Inductance = 5.2nH
*======================================================================
* Model Parameters:
*   Valid Frequency Range = 0.001GHz-16GHz
*   Ambient Temperature = 25 degC
*   Inductor Frequency Model
*   Use model for Frequency Domain simulations
*======================================================================
.subckt 0201DS-5N2_freq port1 port2 PARAMS: Cpar=0.028pF Ind=5.2nH
X1 port1 port2 Model2A PARAMS:
+ R1=11
+ R2=0.17
+ C= {Cpar}
+ K1=0.000021
+ K2=0
+ K3= {Ind}
+ K4=0
+ K5=0
+ L=0
+ Is=0
+ a=0
+ L_Z0=0
+ L_EL=0
+ L_F0=0E6
+ PkZ=13851.9913
.ends 0201DS-5N2_freq

*======================================================================
* SPICE Model generated by Coilcraft
* Coilcraft Part Number : 0201DS-5N3
* Inductance = 5.3nH
*======================================================================
* Model Parameters:
*   Valid Frequency Range = 0.001GHz-16GHz
*   Ambient Temperature = 25 degC
*   Inductor Frequency Model
*   Use model for Frequency Domain simulations
*======================================================================
.subckt 0201DS-5N3_freq port1 port2 PARAMS: Cpar=0.028pF Ind=5.3nH
X1 port1 port2 Model2A PARAMS:
+ R1=10
+ R2=0.13
+ C= {Cpar}
+ K1=0.000022
+ K2=0
+ K3= {Ind}
+ K4=0
+ K5=0
+ L=0
+ Is=0
+ a=0
+ L_Z0=0
+ L_EL=0
+ L_F0=0E6
+ PkZ=15129.5307
.ends 0201DS-5N3_freq

*======================================================================
* SPICE Model generated by Coilcraft
* Coilcraft Part Number : 0201DS-5N4
* Inductance = 5.4nH
*======================================================================
* Model Parameters:
*   Valid Frequency Range = 0.001GHz-16GHz
*   Ambient Temperature = 25 degC
*   Inductor Frequency Model
*   Use model for Frequency Domain simulations
*======================================================================
.subckt 0201DS-5N4_freq port1 port2 PARAMS: Cpar=0.036pF Ind=5.4nH
X1 port1 port2 Model2A PARAMS:
+ R1=8
+ R2=0.13
+ C= {Cpar}
+ K1=0.000021
+ K2=0
+ K3= {Ind}
+ K4=0
+ K5=0
+ L=0
+ Is=0
+ a=0
+ L_Z0=0
+ L_EL=0
+ L_F0=0E6
+ PkZ=14646.7157
.ends 0201DS-5N4_freq

*======================================================================
* SPICE Model generated by Coilcraft
* Coilcraft Part Number : 0201DS-5N5
* Inductance = 5.5nH
*======================================================================
* Model Parameters:
*   Valid Frequency Range = 0.001GHz-16GHz
*   Ambient Temperature = 25 degC
*   Inductor Frequency Model
*   Use model for Frequency Domain simulations
*======================================================================
.subckt 0201DS-5N5_freq port1 port2 PARAMS: Cpar=0.026pF Ind=5.5nH
X1 port1 port2 Model2A PARAMS:
+ R1=10
+ R2=0.285
+ C= {Cpar}
+ K1=0.000021
+ K2=0
+ K3= {Ind}
+ K4=0
+ K5=0
+ L=0
+ Is=0
+ a=0
+ L_Z0=0
+ L_EL=0
+ L_F0=0E6
+ PkZ=17032.9586
.ends 0201DS-5N5_freq

*======================================================================
* SPICE Model generated by Coilcraft
* Coilcraft Part Number : 0201DS-6N7
* Inductance = 6.7nH
*======================================================================
* Model Parameters:
*   Valid Frequency Range = 0.001GHz-15GHz
*   Ambient Temperature = 25 degC
*   Inductor Frequency Model
*   Use model for Frequency Domain simulations
*======================================================================
.subckt 0201DS-6N7_freq port1 port2 PARAMS: Cpar=0.034pF Ind=6.7nH
X1 port1 port2 Model2A PARAMS:
+ R1=18
+ R2=0.15
+ C= {Cpar}
+ K1=0.000026
+ K2=0
+ K3= {Ind}
+ K4=0
+ K5=0
+ L=0
+ Is=0
+ a=0
+ L_Z0=0
+ L_EL=0
+ L_F0=0E6
+ PkZ=9541.76951
.ends 0201DS-6N7_freq

*======================================================================
* SPICE Model generated by Coilcraft
* Coilcraft Part Number : 0201DS-6N8
* Inductance = 6.8nH
*======================================================================
* Model Parameters:
*   Valid Frequency Range = 0.001GHz-15GHz
*   Ambient Temperature = 25 degC
*   Inductor Frequency Model
*   Use model for Frequency Domain simulations
*======================================================================
.subckt 0201DS-6N8_freq port1 port2 PARAMS: Cpar=0.04pF Ind=6.8nH
X1 port1 port2 Model2A PARAMS:
+ R1=17
+ R2=0.15
+ C= {Cpar}
+ K1=0.000028
+ K2=0
+ K3= {Ind}
+ K4=0
+ K5=0
+ L=0
+ Is=0
+ a=0
+ L_Z0=0
+ L_EL=0
+ L_F0=0E6
+ PkZ=8614.99243
.ends 0201DS-6N8_freq

*======================================================================
* SPICE Model generated by Coilcraft
* Coilcraft Part Number : 0201DS-6N9
* Inductance = 6.9nH
*======================================================================
* Model Parameters:
*   Valid Frequency Range = 0.001GHz-15GHz
*   Ambient Temperature = 25 degC
*   Inductor Frequency Model
*   Use model for Frequency Domain simulations
*======================================================================
.subckt 0201DS-6N9_freq port1 port2 PARAMS: Cpar=0.042pF Ind=6.9nH
X1 port1 port2 Model2A PARAMS:
+ R1=18
+ R2=0.15
+ C= {Cpar}
+ K1=0.0000281
+ K2=0
+ K3= {Ind}
+ K4=0
+ K5=0
+ L=0
+ Is=0
+ a=0
+ L_Z0=0
+ L_EL=0
+ L_F0=0E6
+ PkZ=7938.13421
.ends 0201DS-6N9_freq

*======================================================================
* SPICE Model generated by Coilcraft
* Coilcraft Part Number : 0201DS-7N0
* Inductance = 7nH
*======================================================================
* Model Parameters:
*   Valid Frequency Range = 0.001GHz-15GHz
*   Ambient Temperature = 25 degC
*   Inductor Frequency Model
*   Use model for Frequency Domain simulations
*======================================================================
.subckt 0201DS-7N0_freq port1 port2 PARAMS: Cpar=0.031pF Ind=7nH
X1 port1 port2 Model2A PARAMS:
+ R1=20
+ R2=0.21
+ C= {Cpar}
+ K1=0.000025
+ K2=0
+ K3= {Ind}
+ K4=0
+ K5=0
+ L=0
+ Is=0
+ a=0
+ L_Z0=0
+ L_EL=0
+ L_F0=0E6
+ PkZ=10001.2717
.ends 0201DS-7N0_freq

*======================================================================
* SPICE Model generated by Coilcraft
* Coilcraft Part Number : 0201DS-7N1
* Inductance = 7.1nH
*======================================================================
* Model Parameters:
*   Valid Frequency Range = 0.001GHz-15GHz
*   Ambient Temperature = 25 degC
*   Inductor Frequency Model
*   Use model for Frequency Domain simulations
*======================================================================
.subckt 0201DS-7N1_freq port1 port2 PARAMS: Cpar=0.03pF Ind=7.1nH
X1 port1 port2 Model2A PARAMS:
+ R1=19
+ R2=0.15
+ C= {Cpar}
+ K1=0.000028
+ K2=0
+ K3= {Ind}
+ K4=0
+ K5=0
+ L=0
+ Is=0
+ a=0
+ L_Z0=0
+ L_EL=0
+ L_F0=0E6
+ PkZ=10803.4557
.ends 0201DS-7N1_freq

*======================================================================
* SPICE Model generated by Coilcraft
* Coilcraft Part Number : 0201DS-7N2
* Inductance = 7.2nH
*======================================================================
* Model Parameters:
*   Valid Frequency Range = 0.001GHz-14GHz
*   Ambient Temperature = 25 degC
*   Inductor Frequency Model
*   Use model for Frequency Domain simulations
*======================================================================
.subckt 0201DS-7N2_freq port1 port2 PARAMS: Cpar=0.024pF Ind=7.2nH
X1 port1 port2 Model2A PARAMS:
+ R1=13
+ R2=0.25
+ C= {Cpar}
+ K1=0.000028
+ K2=0
+ K3= {Ind}
+ K4=0
+ K5=0
+ L=0
+ Is=0
+ a=0
+ L_Z0=0
+ L_EL=0
+ L_F0=0E6
+ PkZ=18661.4335
.ends 0201DS-7N2_freq

*======================================================================
* SPICE Model generated by Coilcraft
* Coilcraft Part Number : 0201DS-7N3
* Inductance = 7.3nH
*======================================================================
* Model Parameters:
*   Valid Frequency Range = 0.001GHz-14GHz
*   Ambient Temperature = 25 degC
*   Inductor Frequency Model
*   Use model for Frequency Domain simulations
*======================================================================
.subckt 0201DS-7N3_freq port1 port2 PARAMS: Cpar=0.028pF Ind=7.3nH
X1 port1 port2 Model2A PARAMS:
+ R1=15
+ R2=0.25
+ C= {Cpar}
+ K1=0.0000294
+ K2=0
+ K3= {Ind}
+ K4=0
+ K5=0
+ L=0
+ Is=0
+ a=0
+ L_Z0=0
+ L_EL=0
+ L_F0=0E6
+ PkZ=14409.2681
.ends 0201DS-7N3_freq

*======================================================================
* SPICE Model generated by Coilcraft
* Coilcraft Part Number : 0201DS-7N4
* Inductance = 7.4nH
*======================================================================
* Model Parameters:
*   Valid Frequency Range = 0.001GHz-14GHz
*   Ambient Temperature = 25 degC
*   Inductor Frequency Model
*   Use model for Frequency Domain simulations
*======================================================================
.subckt 0201DS-7N4_freq port1 port2 PARAMS: Cpar=0.034pF Ind=7.4nH
X1 port1 port2 Model2A PARAMS:
+ R1=13
+ R2=0.25
+ C= {Cpar}
+ K1=0.0000242
+ K2=0
+ K3= {Ind}
+ K4=0
+ K5=0
+ L=0
+ Is=0
+ a=0
+ L_Z0=0
+ L_EL=0
+ L_F0=0E6
+ PkZ=14116.7751
.ends 0201DS-7N4_freq

*======================================================================
* SPICE Model generated by Coilcraft
* Coilcraft Part Number : 0201DS-7N5
* Inductance = 7.5nH
*======================================================================
* Model Parameters:
*   Valid Frequency Range = 0.001GHz-14GHz
*   Ambient Temperature = 25 degC
*   Inductor Frequency Model
*   Use model for Frequency Domain simulations
*======================================================================
.subckt 0201DS-7N5_freq port1 port2 PARAMS: Cpar=0.029pF Ind=7.5nH
X1 port1 port2 Model2A PARAMS:
+ R1=15
+ R2=0.34
+ C= {Cpar}
+ K1=0.000029
+ K2=0
+ K3= {Ind}
+ K4=0
+ K5=0
+ L=0
+ Is=0
+ a=0
+ L_Z0=0
+ L_EL=0
+ L_F0=0E6
+ PkZ=14364.5918
.ends 0201DS-7N5_freq

*======================================================================
* SPICE Model generated by Coilcraft
* Coilcraft Part Number : 0201DS-7N6
* Inductance = 7.6nH
*======================================================================
* Model Parameters:
*   Valid Frequency Range = 0.001GHz-14GHz
*   Ambient Temperature = 25 degC
*   Inductor Frequency Model
*   Use model for Frequency Domain simulations
*======================================================================
.subckt 0201DS-7N6_freq port1 port2 PARAMS: Cpar=0.024pF Ind=7.6nH
X1 port1 port2 Model2A PARAMS:
+ R1=15
+ R2=0.3
+ C= {Cpar}
+ K1=0.0000267
+ K2=0
+ K3= {Ind}
+ K4=0
+ K5=0
+ L=0
+ Is=0
+ a=0
+ L_Z0=0
+ L_EL=0
+ L_F0=0E6
+ PkZ=17699.2306
.ends 0201DS-7N6_freq

*======================================================================
* SPICE Model generated by Coilcraft
* Coilcraft Part Number : 0201DS-7N7
* Inductance = 7.7nH
*======================================================================
* Model Parameters:
*   Valid Frequency Range = 0.001GHz-14GHz
*   Ambient Temperature = 25 degC
*   Inductor Frequency Model
*   Use model for Frequency Domain simulations
*======================================================================
.subckt 0201DS-7N7_freq port1 port2 PARAMS: Cpar=0.024pF Ind=7.7nH
X1 port1 port2 Model2A PARAMS:
+ R1=13
+ R2=0.3
+ C= {Cpar}
+ K1=0.0000254
+ K2=0
+ K3= {Ind}
+ K4=0
+ K5=0
+ L=0
+ Is=0
+ a=0
+ L_Z0=0
+ L_EL=0
+ L_F0=0E6
+ PkZ=20378.4397
.ends 0201DS-7N7_freq

*======================================================================
* SPICE Model generated by Coilcraft
* Coilcraft Part Number : 0201DS-7N8
* Inductance = 7.8nH
*======================================================================
* Model Parameters:
*   Valid Frequency Range = 0.001GHz-14GHz
*   Ambient Temperature = 25 degC
*   Inductor Frequency Model
*   Use model for Frequency Domain simulations
*======================================================================
.subckt 0201DS-7N8_freq port1 port2 PARAMS: Cpar=0.028pF Ind=7.8nH
X1 port1 port2 Model2A PARAMS:
+ R1=16
+ R2=0.3
+ C= {Cpar}
+ K1=0.0000267
+ K2=0
+ K3= {Ind}
+ K4=0
+ K5=0
+ L=0
+ Is=0
+ a=0
+ L_Z0=0
+ L_EL=0
+ L_F0=0E6
+ PkZ=14847.9863
.ends 0201DS-7N8_freq

*======================================================================
* SPICE Model generated by Coilcraft
* Coilcraft Part Number : 0201DS-7N9
* Inductance = 7.9nH
*======================================================================
* Model Parameters:
*   Valid Frequency Range = 0.001GHz-14GHz
*   Ambient Temperature = 25 degC
*   Inductor Frequency Model
*   Use model for Frequency Domain simulations
*======================================================================
.subckt 0201DS-7N9_freq port1 port2 PARAMS: Cpar=0.031pF Ind=7.9nH
X1 port1 port2 Model2A PARAMS:
+ R1=16
+ R2=0.3
+ C= {Cpar}
+ K1=0.0000267
+ K2=0
+ K3= {Ind}
+ K4=0
+ K5=0
+ L=0
+ Is=0
+ a=0
+ L_Z0=0
+ L_EL=0
+ L_F0=0E6
+ PkZ=13640.4627
.ends 0201DS-7N9_freq

*======================================================================
* SPICE Model generated by Coilcraft
* Coilcraft Part Number : 0201DS-8N0
* Inductance = 8nH
*======================================================================
* Model Parameters:
*   Valid Frequency Range = 0.001GHz-14GHz
*   Ambient Temperature = 25 degC
*   Inductor Frequency Model
*   Use model for Frequency Domain simulations
*======================================================================
.subckt 0201DS-8N0_freq port1 port2 PARAMS: Cpar=0.028pF Ind=8nH
X1 port1 port2 Model2A PARAMS:
+ R1=17
+ R2=0.3
+ C= {Cpar}
+ K1=0.000028
+ K2=0
+ K3= {Ind}
+ K4=0
+ K5=0
+ L=0
+ Is=0
+ a=0
+ L_Z0=0
+ L_EL=0
+ L_F0=0E6
+ PkZ=14374.3758
.ends 0201DS-8N0_freq

*======================================================================
* SPICE Model generated by Coilcraft
* Coilcraft Part Number : 0201DS-8N1
* Inductance = 8.1nH
*======================================================================
* Model Parameters:
*   Valid Frequency Range = 0.001GHz-13GHz
*   Ambient Temperature = 25 degC
*   Inductor Frequency Model
*   Use model for Frequency Domain simulations