*======================================================================
* SPICE Model generated by Coilcraft
* Coilcraft Part Number : 0302CS-N67
* Inductance = 0.67nH
*======================================================================
* Model Parameters:
*   Valid Frequency Range = 0.001GHz-26GHz
*   Ambient Temperature = 25 degC
*   Inductor Frequency Model
*   Use model for Frequency Domain simulations
*======================================================================
.subckt 0302CS-N67_freq port1 port2 PARAMS: Cpar=0.032pF Ind=0.67nH
X1 port1 port2 Model2A PARAMS:
+ R1=1.89
+ R2=0.005
+ C= {Cpar}
+ K1=0.00000288
+ K2=0
+ K3= {Ind}
+ K4=0
+ K5=0
+ L=0
+ Is=0
+ a=0
+ L_Z0=0
+ L_EL=0
+ L_F0=0E6
+ PkZ=8638.57977
.ends 0302CS-N67_freq

*======================================================================
* SPICE Model generated by Coilcraft
* Coilcraft Part Number : 0302CS-1N7
* Inductance = 1.7nH
*======================================================================
* Model Parameters:
*   Valid Frequency Range = 0.001GHz-18GHz
*   Ambient Temperature = 25 degC
*   Inductor Frequency Model
*   Use model for Frequency Domain simulations
*======================================================================
.subckt 0302CS-1N7_freq port1 port2 PARAMS: Cpar=0.057pF Ind=1.7nH
X1 port1 port2 Model2A PARAMS:
+ R1=8.23
+ R2=0.022
+ C= {Cpar}
+ K1=0.00000488
+ K2=0
+ K3= {Ind}
+ K4=0
+ K5=0
+ L=0
+ Is=0
+ a=0
+ L_Z0=0
+ L_EL=0
+ L_F0=0E6
+ PkZ=3373.68073
.ends 0302CS-1N7_freq

*======================================================================
* SPICE Model generated by Coilcraft
* Coilcraft Part Number : 0302CS-1N9
* Inductance = 1.9nH
*======================================================================
* Model Parameters:
*   Valid Frequency Range = 0.001GHz-18GHz
*   Ambient Temperature = 25 degC
*   Inductor Frequency Model
*   Use model for Frequency Domain simulations
*======================================================================
.subckt 0302CS-1N9_freq port1 port2 PARAMS: Cpar=0.02pF Ind=1.9nH
X1 port1 port2 Model2A PARAMS:
+ R1=11.24
+ R2=0.065
+ C= {Cpar}
+ K1=0.00000566
+ K2=0
+ K3= {Ind}
+ K4=0
+ K5=0
+ L=0
+ Is=0
+ a=0
+ L_Z0=0
+ L_EL=0
+ L_F0=0E6
+ PkZ=7824.57816
.ends 0302CS-1N9_freq

*======================================================================
* SPICE Model generated by Coilcraft
* Coilcraft Part Number : 0302CS-2N1
* Inductance = 2.1nH
*======================================================================
* Model Parameters:
*   Valid Frequency Range = 0.001GHz-18GHz
*   Ambient Temperature = 25 degC
*   Inductor Frequency Model
*   Use model for Frequency Domain simulations
*======================================================================
.subckt 0302CS-2N1_freq port1 port2 PARAMS: Cpar=0.047pF Ind=2.1nH
X1 port1 port2 Model2A PARAMS:
+ R1=12.16
+ R2=0.126
+ C= {Cpar}
+ K1=0.00000623
+ K2=0
+ K3= {Ind}
+ K4=0
+ K5=0
+ L=0
+ Is=0
+ a=0
+ L_Z0=0
+ L_EL=0
+ L_F0=0E6
+ PkZ=3456.50506
.ends 0302CS-2N1_freq

*======================================================================
* SPICE Model generated by Coilcraft
* Coilcraft Part Number : 0302CS-3N0
* Inductance = 3nH
*======================================================================
* Model Parameters:
*   Valid Frequency Range = 0.001GHz-16.5GHz
*   Ambient Temperature = 25 degC
*   Inductor Frequency Model
*   Use model for Frequency Domain simulations
*======================================================================
.subckt 0302CS-3N0_freq port1 port2 PARAMS: Cpar=0.037pF Ind=3nH
X1 port1 port2 Model2A PARAMS:
+ R1=9.07
+ R2=0.25
+ C= {Cpar}
+ K1=0.00000193
+ K2=0
+ K3= {Ind}
+ K4=0
+ K5=0
+ L=0
+ Is=0
+ a=0
+ L_Z0=0
+ L_EL=0
+ L_F0=0E6
+ PkZ=8716.31122
.ends 0302CS-3N0_freq

*======================================================================
* SPICE Model generated by Coilcraft
* Coilcraft Part Number : 0302CS-3N3
* Inductance = 3.3nH
*======================================================================
* Model Parameters:
*   Valid Frequency Range = 0.001GHz-13GHz
*   Ambient Temperature = 25 degC
*   Inductor Frequency Model
*   Use model for Frequency Domain simulations
*======================================================================
.subckt 0302CS-3N3_freq port1 port2 PARAMS: Cpar=0.057pF Ind=3.3nH
X1 port1 port2 Model2A PARAMS:
+ R1=6.14
+ R2=0.264
+ C= {Cpar}
+ K1=0.00000243
+ K2=0
+ K3= {Ind}
+ K4=0
+ K5=0
+ L=0
+ Is=0
+ a=0
+ L_Z0=0
+ L_EL=0
+ L_F0=0E6
+ PkZ=9046.76533
.ends 0302CS-3N3_freq

*======================================================================
* SPICE Model generated by Coilcraft
* Coilcraft Part Number : 0302CS-3N5
* Inductance = 3.5nH
*======================================================================
* Model Parameters:
*   Valid Frequency Range = 0.001GHz-13GHz
*   Ambient Temperature = 25 degC
*   Inductor Frequency Model
*   Use model for Frequency Domain simulations
*======================================================================
.subckt 0302CS-3N5_freq port1 port2 PARAMS: Cpar=0.054pF Ind=3.5nH
X1 port1 port2 Model2A PARAMS:
+ R1=7.11
+ R2=0.132
+ C= {Cpar}
+ K1=0.00000678
+ K2=0
+ K3= {Ind}
+ K4=0
+ K5=0
+ L=0
+ Is=0
+ a=0
+ L_Z0=0
+ L_EL=0
+ L_F0=0E6
+ PkZ=8271.1142
.ends 0302CS-3N5_freq

*======================================================================
* SPICE Model generated by Coilcraft
* Coilcraft Part Number : 0302CS-3N8
* Inductance = 3.8nH
*======================================================================
* Model Parameters:
*   Valid Frequency Range = 0.001GHz-12.5GHz
*   Ambient Temperature = 25 degC
*   Inductor Frequency Model
*   Use model for Frequency Domain simulations
*======================================================================
.subckt 0302CS-3N8_freq port1 port2 PARAMS: Cpar=0.058pF Ind=3.8nH
X1 port1 port2 Model2A PARAMS:
+ R1=7.84
+ R2=0.107
+ C= {Cpar}
+ K1=0.00000823
+ K2=0
+ K3= {Ind}
+ K4=0
+ K5=0
+ L=0
+ Is=0
+ a=0
+ L_Z0=0
+ L_EL=0
+ L_F0=0E6
+ PkZ=7541.21745
.ends 0302CS-3N8_freq

*======================================================================
* SPICE Model generated by Coilcraft
* Coilcraft Part Number : 0302CS-4N0
* Inductance = 4nH
*======================================================================
* Model Parameters:
*   Valid Frequency Range = 0.001GHz-13GHz
*   Ambient Temperature = 25 degC
*   Inductor Frequency Model
*   Use model for Frequency Domain simulations
*======================================================================
.subckt 0302CS-4N0_freq port1 port2 PARAMS: Cpar=0.051pF Ind=4nH
X1 port1 port2 Model2A PARAMS:
+ R1=9.07
+ R2=0.284
+ C= {Cpar}
+ K1=0.00000416
+ K2=0
+ K3= {Ind}
+ K4=0
+ K5=0
+ L=0
+ Is=0
+ a=0
+ L_Z0=0
+ L_EL=0
+ L_F0=0E6
+ PkZ=8252.62316
.ends 0302CS-4N0_freq

*======================================================================
* SPICE Model generated by Coilcraft
* Coilcraft Part Number : 0302CS-4N7
* Inductance = 4.7nH
*======================================================================
* Model Parameters:
*   Valid Frequency Range = 0.001GHz-13.5GHz
*   Ambient Temperature = 25 degC
*   Inductor Frequency Model
*   Use model for Frequency Domain simulations
*======================================================================
.subckt 0302CS-4N7_freq port1 port2 PARAMS: Cpar=0.037pF Ind=4.7nH
X1 port1 port2 Model2A PARAMS:
+ R1=5.85
+ R2=0.329
+ C= {Cpar}
+ K1=0.0000053
+ K2=0
+ K3= {Ind}
+ K4=0
+ K5=0
+ L=0
+ Is=0
+ a=0
+ L_Z0=0
+ L_EL=0
+ L_F0=0E6
+ PkZ=19751.4679
.ends 0302CS-4N7_freq

*======================================================================
* SPICE Model generated by Coilcraft
* Coilcraft Part Number : 0302CS-5N1
* Inductance = 5.1nH
*======================================================================
* Model Parameters:
*   Valid Frequency Range = 0.001GHz-11GHz
*   Ambient Temperature = 25 degC
*   Inductor Frequency Model
*   Use model for Frequency Domain simulations
*======================================================================
.subckt 0302CS-5N1_freq port1 port2 PARAMS: Cpar=0.054pF Ind=5.1nH
X1 port1 port2 Model2A PARAMS:
+ R1=11.03
+ R2=0.251
+ C= {Cpar}
+ K1=0.0000071
+ K2=0
+ K3= {Ind}
+ K4=0
+ K5=0
+ L=0
+ Is=0
+ a=0
+ L_Z0=0
+ L_EL=0
+ L_F0=0E6
+ PkZ=8060.20918
.ends 0302CS-5N1_freq

*======================================================================
* SPICE Model generated by Coilcraft
* Coilcraft Part Number : 0302CS-6N0
* Inductance = 6nH
*======================================================================
* Model Parameters:
*   Valid Frequency Range = 0.001GHz-10GHz
*   Ambient Temperature = 25 degC
*   Inductor Frequency Model
*   Use model for Frequency Domain simulations
*======================================================================
.subckt 0302CS-6N0_freq port1 port2 PARAMS: Cpar=0.057pF Ind=6nH
X1 port1 port2 Model2A PARAMS:
+ R1=12.76
+ R2=0.299
+ C= {Cpar}
+ K1=0.00000952
+ K2=0
+ K3= {Ind}
+ K4=0
+ K5=0
+ L=0
+ Is=0
+ a=0
+ L_Z0=0
+ L_EL=0
+ L_F0=0E6
+ PkZ=7721.74365
.ends 0302CS-6N0_freq

*======================================================================
* SPICE Model generated by Coilcraft
* Coilcraft Part Number : 0302CS-6N3
* Inductance = 6.3nH
*======================================================================
* Model Parameters:
*   Valid Frequency Range = 0.001GHz-11GHz
*   Ambient Temperature = 25 degC
*   Inductor Frequency Model
*   Use model for Frequency Domain simulations
*======================================================================
.subckt 0302CS-6N3_freq port1 port2 PARAMS: Cpar=0.046pF Ind=6.3nH
X1 port1 port2 Model2A PARAMS:
+ R1=14.07
+ R2=0.295
+ C= {Cpar}
+ K1=0.0000114
+ K2=0
+ K3= {Ind}
+ K4=0
+ K5=0
+ L=0
+ Is=0
+ a=0
+ L_Z0=0
+ L_EL=0
+ L_F0=0E6
+ PkZ=9033.61822
.ends 0302CS-6N3_freq

*======================================================================
* SPICE Model generated by Coilcraft
* Coilcraft Part Number : 0302CS-6N5
* Inductance = 6.5nH
*======================================================================
* Model Parameters:
*   Valid Frequency Range = 0.001GHz-9.5GHz
*   Ambient Temperature = 25 degC
*   Inductor Frequency Model
*   Use model for Frequency Domain simulations
*======================================================================
.subckt 0302CS-6N5_freq port1 port2 PARAMS: Cpar=0.058pF Ind=6.5nH
X1 port1 port2 Model2A PARAMS:
+ R1=14.07
+ R2=0.359
+ C= {Cpar}
+ K1=0.0000098
+ K2=0
+ K3= {Ind}
+ K4=0
+ K5=0
+ L=0
+ Is=0
+ a=0
+ L_Z0=0
+ L_EL=0
+ L_F0=0E6
+ PkZ=7499.61319
.ends 0302CS-6N5_freq

*======================================================================
* SPICE Model generated by Coilcraft
* Coilcraft Part Number : 0302CS-7N0
* Inductance = 7nH
*======================================================================
* Model Parameters:
*   Valid Frequency Range = 0.001GHz-9.5GHz
*   Ambient Temperature = 25 degC
*   Inductor Frequency Model
*   Use model for Frequency Domain simulations
*======================================================================
.subckt 0302CS-7N0_freq port1 port2 PARAMS: Cpar=0.05pF Ind=7nH
X1 port1 port2 Model2A PARAMS:
+ R1=15.51
+ R2=0.367
+ C= {Cpar}
+ K1=0.00001
+ K2=0
+ K3= {Ind}
+ K4=0
+ K5=0
+ L=0
+ Is=0
+ a=0
+ L_Z0=0
+ L_EL=0
+ L_F0=0E6
+ PkZ=8527.49168
.ends 0302CS-7N0_freq

*======================================================================
* SPICE Model generated by Coilcraft
* Coilcraft Part Number : 0302CS-7N2
* Inductance = 7.2nH
*======================================================================
* Model Parameters:
*   Valid Frequency Range = 0.001GHz-10.5GHz
*   Ambient Temperature = 25 degC
*   Inductor Frequency Model
*   Use model for Frequency Domain simulations
*======================================================================
.subckt 0302CS-7N2_freq port1 port2 PARAMS: Cpar=0.042pF Ind=7.2nH
X1 port1 port2 Model2A PARAMS:
+ R1=17.1
+ R2=0.323
+ C= {Cpar}
+ K1=0.0000119
+ K2=0
+ K3= {Ind}
+ K4=0
+ K5=0
+ L=0
+ Is=0
+ a=0
+ L_Z0=0
+ L_EL=0
+ L_F0=0E6
+ PkZ=9407.66932
.ends 0302CS-7N2_freq

*======================================================================
* SPICE Model generated by Coilcraft
* Coilcraft Part Number : 0302CS-7N4
* Inductance = 7.4nH
*======================================================================
* Model Parameters:
*   Valid Frequency Range = 0.001GHz-9.5GHz
*   Ambient Temperature = 25 degC
*   Inductor Frequency Model
*   Use model for Frequency Domain simulations
*======================================================================
.subckt 0302CS-7N4_freq port1 port2 PARAMS: Cpar=0.054pF Ind=7.4nH
X1 port1 port2 Model2A PARAMS:
+ R1=12.16
+ R2=0.385
+ C= {Cpar}
+ K1=0.0000104
+ K2=0
+ K3= {Ind}
+ K4=0
+ K5=0
+ L=0
+ Is=0
+ a=0
+ L_Z0=0
+ L_EL=0
+ L_F0=0E6
+ PkZ=10476.5175
.ends 0302CS-7N4_freq

*======================================================================
* SPICE Model generated by Coilcraft
* Coilcraft Part Number : 0302CS-8N3
* Inductance = 8.3nH
*======================================================================
* Model Parameters:
*   Valid Frequency Range = 0.001GHz-9.5GHz
*   Ambient Temperature = 25 degC
*   Inductor Frequency Model
*   Use model for Frequency Domain simulations
*======================================================================
.subckt 0302CS-8N3_freq port1 port2 PARAMS: Cpar=0.045pF Ind=8.3nH
X1 port1 port2 Model2A PARAMS:
+ R1=19.8
+ R2=0.579
+ C= {Cpar}
+ K1=0.00001
+ K2=0
+ K3= {Ind}
+ K4=0
+ K5=0
+ L=0
+ Is=0
+ a=0
+ L_Z0=0
+ L_EL=0
+ L_F0=0E6
+ PkZ=8917.20009
.ends 0302CS-8N3_freq

*======================================================================
* SPICE Model generated by Coilcraft
* Coilcraft Part Number : 0302CS-10N
* Inductance = 10nH
*======================================================================
* Model Parameters:
*   Valid Frequency Range = 0.001GHz-8.5GHz
*   Ambient Temperature = 25 degC
*   Inductor Frequency Model
*   Use model for Frequency Domain simulations
*======================================================================
.subckt 0302CS-10N_freq port1 port2 PARAMS: Cpar=0.046pF Ind=10nH
X1 port1 port2 Model2A PARAMS:
+ R1=10.77
+ R2=0.534
+ C= {Cpar}
+ K1=0.0000133
+ K2=0
+ K3= {Ind}
+ K4=0
+ K5=0
+ L=0
+ Is=0
+ a=0
+ L_Z0=0
+ L_EL=0
+ L_F0=0E6
+ PkZ=18249.5567
.ends 0302CS-10N_freq

*======================================================================
* SPICE Model generated by Coilcraft
* Coilcraft Part Number : 0302CS-11N
* Inductance = 11nH
*======================================================================
* Model Parameters:
*   Valid Frequency Range = 0.001GHz-7.8GHz
*   Ambient Temperature = 25 degC
*   Inductor Frequency Model
*   Use model for Frequency Domain simulations
*======================================================================
.subckt 0302CS-11N_freq port1 port2 PARAMS: Cpar=0.049pF Ind=11nH
X1 port1 port2 Model2A PARAMS:
+ R1=10.26
+ R2=0.56
+ C= {Cpar}
+ K1=0.000017
+ K2=0
+ K3= {Ind}
+ K4=0
+ K5=0
+ L=0
+ Is=0
+ a=0
+ L_Z0=0
+ L_EL=0
+ L_F0=0E6
+ PkZ=19245.6917
.ends 0302CS-11N_freq

*======================================================================
* SPICE Model generated by Coilcraft
* Coilcraft Part Number : 0302CS-12N
* Inductance = 12nH
*======================================================================
* Model Parameters:
*   Valid Frequency Range = 0.001GHz-7.8GHz
*   Ambient Temperature = 25 degC
*   Inductor Frequency Model
*   Use model for Frequency Domain simulations
*======================================================================
.subckt 0302CS-12N_freq port1 port2 PARAMS: Cpar=0.045pF Ind=12nH
X1 port1 port2 Model2A PARAMS:
+ R1=10.5
+ R2=0.672
+ C= {Cpar}
+ K1=0.0000163
+ K2=0
+ K3= {Ind}
+ K4=0
+ K5=0
+ L=0
+ Is=0
+ a=0
+ L_Z0=0
+ L_EL=0
+ L_F0=0E6
+ PkZ=22510.8904
.ends 0302CS-12N_freq

*======================================================================
* SPICE Model generated by Coilcraft
* Coilcraft Part Number : 0302CS-13N
* Inductance = 13nH
*======================================================================
* Model Parameters:
*   Valid Frequency Range = 0.001GHz-8GHz
*   Ambient Temperature = 25 degC
*   Inductor Frequency Model
*   Use model for Frequency Domain simulations
*======================================================================
.subckt 0302CS-13N_freq port1 port2 PARAMS: Cpar=0.041pF Ind=13nH
X1 port1 port2 Model2A PARAMS:
+ R1=11.02
+ R2=0.817
+ C= {Cpar}
+ K1=0.000018
+ K2=0
+ K3= {Ind}
+ K4=0
+ K5=0
+ L=0
+ Is=0
+ a=0
+ L_Z0=0
+ L_EL=0
+ L_F0=0E6
+ PkZ=25342.1866
.ends 0302CS-13N_freq

*======================================================================
* SPICE Model generated by Coilcraft
* Coilcraft Part Number : 0302CS-15N
* Inductance = 15nH
*======================================================================
* Model Parameters:
*   Valid Frequency Range = 0.001GHz-7GHz
*   Ambient Temperature = 25 degC
*   Inductor Frequency Model
*   Use model for Frequency Domain simulations
*======================================================================
.subckt 0302CS-15N_freq port1 port2 PARAMS: Cpar=0.044pF Ind=15nH
X1 port1 port2 Model2A PARAMS:
+ R1=17.1
+ R2=1.207
+ C= {Cpar}
+ K1=0.0000116
+ K2=0
+ K3= {Ind}
+ K4=0
+ K5=0
+ L=0
+ Is=0
+ a=0
+ L_Z0=0
+ L_EL=0
+ L_F0=0E6
+ PkZ=18935.0446
.ends 0302CS-15N_freq

*======================================================================
* SPICE Model generated by Coilcraft
* Coilcraft Part Number : 0302CS-16N
* Inductance = 16nH
*======================================================================
* Model Parameters:
*   Valid Frequency Range = 0.001GHz-7GHz
*   Ambient Temperature = 25 degC
*   Inductor Frequency Model
*   Use model for Frequency Domain simulations
*======================================================================
.subckt 0302CS-16N_freq port1 port2 PARAMS: Cpar=0.042pF Ind=16nH
X1 port1 port2 Model2A PARAMS:
+ R1=17.46
+ R2=1.229
+ C= {Cpar}
+ K1=0.0000148
+ K2=0
+ K3= {Ind}
+ K4=0
+ K5=0
+ L=0
+ Is=0
+ a=0
+ L_Z0=0
+ L_EL=0
+ L_F0=0E6
+ PkZ=20469.1376
.ends 0302CS-16N_freq

*======================================================================
* SPICE Model generated by Coilcraft
* Coilcraft Part Number : 0302CS-17N
* Inductance = 17nH
*======================================================================
* Model Parameters:
*   Valid Frequency Range = 0.001GHz-7GHz
*   Ambient Temperature = 25 degC
*   Inductor Frequency Model
*   Use model for Frequency Domain simulations
*======================================================================
.subckt 0302CS-17N_freq port1 port2 PARAMS: Cpar=0.038pF Ind=17nH
X1 port1 port2 Model2A PARAMS:
+ R1=17.46
+ R2=1.647
+ C= {Cpar}
+ K1=0.00000824
+ K2=0
+ K3= {Ind}
+ K4=0
+ K5=0
+ L=0
+ Is=0
+ a=0
+ L_Z0=0
+ L_EL=0
+ L_F0=0E6
+ PkZ=24710.1189
.ends 0302CS-17N_freq

*======================================================================
* SPICE Model generated by Coilcraft
* Coilcraft Part Number : 0302CS-18N
* Inductance = 18nH
*======================================================================
* Model Parameters:
*   Valid Frequency Range = 0.001GHz-7GHz
*   Ambient Temperature = 25 degC
*   Inductor Frequency Model
*   Use model for Frequency Domain simulations
*======================================================================
.subckt 0302CS-18N_freq port1 port2 PARAMS: Cpar=0.039pF Ind=18nH
X1 port1 port2 Model2A PARAMS:
+ R1=20.79
+ R2=1.698
+ C= {Cpar}
+ K1=0.00000797
+ K2=0
+ K3= {Ind}
+ K4=0
+ K5=0
+ L=0
+ Is=0
+ a=0
+ L_Z0=0
+ L_EL=0
+ L_F0=0E6
+ PkZ=21571.2495
.ends 0302CS-18N_freq

*======================================================================
* SPICE Model generated by Coilcraft
* Coilcraft Part Number : 0302CS-19N
* Inductance = 19nH
*======================================================================
* Model Parameters:
*   Valid Frequency Range = 0.001GHz-7GHz
*   Ambient Temperature = 25 degC
*   Inductor Frequency Model
*   Use model for Frequency Domain simulations
*======================================================================
.subckt 0302CS-19N_freq port1 port2 PARAMS: Cpar=0.04pF Ind=19nH
X1 port1 port2 Model2A PARAMS:
+ R1=18.86
+ R2=1.698
+ C= {Cpar}
+ K1=0.0000118
+ K2=0
+ K3= {Ind}
+ K4=0
+ K5=0
+ L=0
+ Is=0
+ a=0
+ L_Z0=0
+ L_EL=0
+ L_F0=0E6
+ PkZ=24053.3413
.ends 0302CS-19N_freq

*======================================================================
* SPICE Model generated by Coilcraft
* Coilcraft Part Number : 0302CS-20N
* Inductance = 20nH
*======================================================================
* Model Parameters:
*   Valid Frequency Range = 0.001GHz-6.2GHz
*   Ambient Temperature = 25 degC
*   Inductor Frequency Model
*   Use model for Frequency Domain simulations
*======================================================================
.subckt 0302CS-20N_freq port1 port2 PARAMS: Cpar=0.039pF Ind=20nH
X1 port1 port2 Model2A PARAMS:
+ R1=18.86
+ R2=0.3
+ C= {Cpar}
+ K1=0.0000124
+ K2=0
+ K3= {Ind}
+ K4=0
+ K5=0
+ L=0
+ Is=0
+ a=0
+ L_Z0=0
+ L_EL=0
+ L_F0=0E6
+ PkZ=25914.4722
.ends 0302CS-20N_freq

*======================================================================
* SPICE Model generated by Coilcraft
* Coilcraft Part Number : 0302CS-21N
* Inductance = 21nH
*======================================================================
* Model Parameters:
*   Valid Frequency Range = 0.001GHz-6GHz
*   Ambient Temperature = 25 degC
*   Inductor Frequency Model
*   Use model for Frequency Domain simulations
*======================================================================
.subckt 0302CS-21N_freq port1 port2 PARAMS: Cpar=0.045pF Ind=21nH
X1 port1 port2 Model2A PARAMS:
+ R1=18.86
+ R2=1.966
+ C= {Cpar}
+ K1=0.0000107
+ K2=0
+ K3= {Ind}
+ K4=0
+ K5=0
+ L=0
+ Is=0
+ a=0
+ L_Z0=0
+ L_EL=0
+ L_F0=0E6
+ PkZ=23784.2924
.ends 0302CS-21N_freq

*======================================================================
* SPICE Model generated by Coilcraft
* Coilcraft Part Number : 0302CS-22N
* Inductance = 22nH
*======================================================================
* Model Parameters:
*   Valid Frequency Range = 0.001GHz-6GHz
*   Ambient Temperature = 25 degC
*   Inductor Frequency Model
*   Use model for Frequency Domain simulations
*======================================================================
.subckt 0302CS-22N_freq port1 port2 PARAMS: Cpar=0.047pF Ind=22nH
X1 port1 port2 Model2A PARAMS:
+ R1=18.86
+ R2=2.39
+ C= {Cpar}
+ K1=0.00000525
+ K2=0
+ K3= {Ind}
+ K4=0
+ K5=0
+ L=0
+ Is=0
+ a=0
+ L_Z0=0
+ L_EL=0
+ L_F0=0E6
+ PkZ=24353.86
.ends 0302CS-22N_freq

*======================================================================
* SPICE Model generated by Coilcraft
* Coilcraft Part Number : 0302CS-23N
* Inductance = 23nH
*======================================================================
* Model Parameters:
*   Valid Frequency Range = 0.001GHz-6GHz
*   Ambient Temperature = 25 degC
*   Inductor Frequency Model
*   Use model for Frequency Domain simulations
*======================================================================
.subckt 0302CS-23N_freq port1 port2 PARAMS: Cpar=0.041pF Ind=23nH
X1 port1 port2 Model2A PARAMS:
+ R1=19.8
+ R2=1.966
+ C= {Cpar}
+ K1=0.0000161
+ K2=0
+ K3= {Ind}
+ K4=0
+ K5=0
+ L=0
+ Is=0
+ a=0
+ L_Z0=0
+ L_EL=0
+ L_F0=0E6
+ PkZ=26776.6443
.ends 0302CS-23N_freq

*======================================================================
* SPICE Model generated by Coilcraft
* Coilcraft Part Number : 0302CS-29N
* Inductance = 29nH
*======================================================================
* Model Parameters:
*   Valid Frequency Range = 0.001GHz-5.7GHz
*   Ambient Temperature = 25 degC
*   Inductor Frequency Model
*   Use model for Frequency Domain simulations
*======================================================================
.subckt 0302CS-29N_freq port1 port2 PARAMS: Cpar=0.037pF Ind=29nH
X1 port1 port2 Model2A PARAMS:
+ R1=26.53
+ R2=3.202
+ C= {Cpar}
+ K1=0.00000739
+ K2=0
+ K3= {Ind}
+ K4=0
+ K5=0
+ L=0
+ Is=0
+ a=0
+ L_Z0=0
+ L_EL=0
+ L_F0=0E6
+ PkZ=28996.8182
.ends 0302CS-29N_freq

*======================================================================
* SPICE Model generated by Coilcraft
* Coilcraft Part Number : 0302CS-34N
* Inductance = 34nH
*======================================================================
* Model Parameters:
*   Valid Frequency Range = 0.001GHz-5.5GHz
*   Ambient Temperature = 25 degC
*   Inductor Frequency Model
*   Use model for Frequency Domain simulations
*======================================================================
.subckt 0302CS-34N_freq port1 port2 PARAMS: Cpar=0.038pF Ind=34nH
X1 port1 port2 Model2A PARAMS:
+ R1=30
+ R2=3.473
+ C= {Cpar}
+ K1=0.0000106
+ K2=0
+ K3= {Ind}
+ K4=0
+ K5=0
+ L=0
+ Is=0
+ a=0
+ L_Z0=0
+ L_EL=0
+ L_F0=0E6
+ PkZ=29157.5816
.ends 0302CS-34N_freq

*======================================================================
* SPICE Model generated by Coilcraft
* Coilcraft RF Inductor Model
*======================================================================
* Model Parameters:
*   Valid Frequency Range Varies by Inductor
*   Ambient Temperature = 25 degC
*   DC Bias Current = 0 A
*   Frequency Dependent Inductor Model
*======================================================================
.subckt Model2A Lin Lout PARAMS:
+ R1=1
+ R2=1
+ C=1
+ K1=1
+ K3=1
R2 N001 Lin {R2}
R1 Lout N002 {R1}
C1 N002 N001 {C}
G_Rvar1 N001 N003 LAPLACE { V(N001, N003) } {1/K1/(-S*S/4/PI^2)^0.25}
L1 N003 Lout = {K3}
.ends Model2A








.subckt Coilcraft_Inductor Lin Lout
R1 Lout Lin 100Meg
.ends Coilcraft_Inductor
