*======================================================================
* SPICE Model generated by Coilcraft
* Coilcraft Part Number : 0402HP-1N0
* Inductance = 1nH
*======================================================================
* Model Parameters:
*   Valid Frequency Range = 0.001GHz-20GHz
*   Ambient Temperature = 25 degC
*   Inductor Frequency Model
*   Use model for Frequency Domain simulations
*======================================================================
.subckt 0402HP-1N0_freq port1 port2 PARAMS: Cpar=0.03pF Ind=1nH
X1 port1 port2 Model2A PARAMS:
+ R1=6
+ R2=0.038
+ C= {Cpar}
+ K1=0.0000027
+ K2=0
+ K3= {Ind}
+ K4=0
+ K5=0
+ L=0
+ Is=0
+ a=0
+ L_Z0=0
+ L_EL=0
+ L_F0=0E6
+ PkZ=5162.59915
.ends 0402HP-1N0_freq

*======================================================================
* SPICE Model generated by Coilcraft
* Coilcraft Part Number : 0402HP-2N0
* Inductance = 2nH
*======================================================================
* Model Parameters:
*   Valid Frequency Range = 0.001GHz-20GHz
*   Ambient Temperature = 25 degC
*   Inductor Frequency Model
*   Use model for Frequency Domain simulations
*======================================================================
.subckt 0402HP-2N0_freq port1 port2 PARAMS: Cpar=0.05pF Ind=2nH
X1 port1 port2 Model2A PARAMS:
+ R1=5
+ R2=0.038
+ C= {Cpar}
+ K1=0.00000522
+ K2=0
+ K3= {Ind}
+ K4=0
+ K5=0
+ L=0
+ Is=0
+ a=0
+ L_Z0=0
+ L_EL=0
+ L_F0=0E6
+ PkZ=7071.24924
.ends 0402HP-2N0_freq

*======================================================================
* SPICE Model generated by Coilcraft
* Coilcraft Part Number : 0402HP-2N2
* Inductance = 2.2nH
*======================================================================
* Model Parameters:
*   Valid Frequency Range = 0.001GHz-20GHz
*   Ambient Temperature = 25 degC
*   Inductor Frequency Model
*   Use model for Frequency Domain simulations
*======================================================================
.subckt 0402HP-2N2_freq port1 port2 PARAMS: Cpar=0.04pF Ind=2.2nH
X1 port1 port2 Model2A PARAMS:
+ R1=4
+ R2=0.038
+ C= {Cpar}
+ K1=0.0000057
+ K2=0
+ K3= {Ind}
+ K4=0
+ K5=0
+ L=0
+ Is=0
+ a=0
+ L_Z0=0
+ L_EL=0
+ L_F0=0E6
+ PkZ=11599.1762
.ends 0402HP-2N2_freq

*======================================================================
* SPICE Model generated by Coilcraft
* Coilcraft Part Number : 0402HP-2N4
* Inductance = 2.4nH
*======================================================================
* Model Parameters:
*   Valid Frequency Range = 0.001GHz-20GHz
*   Ambient Temperature = 25 degC
*   Inductor Frequency Model
*   Use model for Frequency Domain simulations
*======================================================================
.subckt 0402HP-2N4_freq port1 port2 PARAMS: Cpar=0.044pF Ind=2.4nH
X1 port1 port2 Model2A PARAMS:
+ R1=13
+ R2=0.042
+ C= {Cpar}
+ K1=0.0000062
+ K2=0
+ K3= {Ind}
+ K4=0
+ K5=0
+ L=0
+ Is=0
+ a=0
+ L_Z0=0
+ L_EL=0
+ L_F0=0E6
+ PkZ=3966.91816
.ends 0402HP-2N4_freq

*======================================================================
* SPICE Model generated by Coilcraft
* Coilcraft Part Number : 0402HP-2N7
* Inductance = 2.7nH
*======================================================================
* Model Parameters:
*   Valid Frequency Range = 0.001GHz-20GHz
*   Ambient Temperature = 25 degC
*   Inductor Frequency Model
*   Use model for Frequency Domain simulations
*======================================================================
.subckt 0402HP-2N7_freq port1 port2 PARAMS: Cpar=0.044pF Ind=2.7nH
X1 port1 port2 Model2A PARAMS:
+ R1=11
+ R2=0.056
+ C= {Cpar}
+ K1=0.00000646
+ K2=0
+ K3= {Ind}
+ K4=0
+ K5=0
+ L=0
+ Is=0
+ a=0
+ L_Z0=0
+ L_EL=0
+ L_F0=0E6
+ PkZ=5214.07885
.ends 0402HP-2N7_freq

*======================================================================
* SPICE Model generated by Coilcraft
* Coilcraft Part Number : 0402HP-3N3
* Inductance = 3.3nH
*======================================================================
* Model Parameters:
*   Valid Frequency Range = 0.001GHz-20GHz
*   Ambient Temperature = 25 degC
*   Inductor Frequency Model
*   Use model for Frequency Domain simulations
*======================================================================
.subckt 0402HP-3N3_freq port1 port2 PARAMS: Cpar=0.032pF Ind=3.3nH
X1 port1 port2 Model2A PARAMS:
+ R1=15
+ R2=0.045
+ C= {Cpar}
+ K1=0.0000078
+ K2=0
+ K3= {Ind}
+ K4=0
+ K5=0
+ L=0
+ Is=0
+ a=0
+ L_Z0=0
+ L_EL=0
+ L_F0=0E6
+ PkZ=6464.24858
.ends 0402HP-3N3_freq

*======================================================================
* SPICE Model generated by Coilcraft
* Coilcraft Part Number : 0402HP-3N6
* Inductance = 3.6nH
*======================================================================
* Model Parameters:
*   Valid Frequency Range = 0.001GHz-20GHz
*   Ambient Temperature = 25 degC
*   Inductor Frequency Model
*   Use model for Frequency Domain simulations
*======================================================================
.subckt 0402HP-3N6_freq port1 port2 PARAMS: Cpar=0.022pF Ind=3.6nH
X1 port1 port2 Model2A PARAMS:
+ R1=10
+ R2=0.045
+ C= {Cpar}
+ K1=0.0000081
+ K2=0
+ K3= {Ind}
+ K4=0
+ K5=0
+ L=0
+ Is=0
+ a=0
+ L_Z0=0
+ L_EL=0
+ L_F0=0E6
+ PkZ=14768.9521
.ends 0402HP-3N6_freq

*======================================================================
* SPICE Model generated by Coilcraft
* Coilcraft Part Number : 0402HP-3N9
* Inductance = 3.9nH
*======================================================================
* Model Parameters:
*   Valid Frequency Range = 0.001GHz-14GHz
*   Ambient Temperature = 25 degC
*   Inductor Frequency Model
*   Use model for Frequency Domain simulations
*======================================================================
.subckt 0402HP-3N9_freq port1 port2 PARAMS: Cpar=0.042pF Ind=3.9nH
X1 port1 port2 Model2A PARAMS:
+ R1=12
+ R2=0.045
+ C= {Cpar}
+ K1=0.0000097
+ K2=0
+ K3= {Ind}
+ K4=0
+ K5=0
+ L=0
+ Is=0
+ a=0
+ L_Z0=0
+ L_EL=0
+ L_F0=0E6
+ PkZ=7103.84354
.ends 0402HP-3N9_freq

*======================================================================
* SPICE Model generated by Coilcraft
* Coilcraft Part Number : 0402HP-4N3
* Inductance = 4.3nH
*======================================================================
* Model Parameters:
*   Valid Frequency Range = 0.001GHz-12GHz
*   Ambient Temperature = 25 degC
*   Inductor Frequency Model
*   Use model for Frequency Domain simulations
*======================================================================
.subckt 0402HP-4N3_freq port1 port2 PARAMS: Cpar=0.048pF Ind=4.3nH
X1 port1 port2 Model2A PARAMS:
+ R1=10
+ R2=0.04
+ C= {Cpar}
+ K1=0.0000112
+ K2=0
+ K3= {Ind}
+ K4=0
+ K5=0
+ L=0
+ Is=0
+ a=0
+ L_Z0=0
+ L_EL=0
+ L_F0=0E6
+ PkZ=8018.23375
.ends 0402HP-4N3_freq

*======================================================================
* SPICE Model generated by Coilcraft
* Coilcraft Part Number : 0402HP-4N7
* Inductance = 4.7nH
*======================================================================
* Model Parameters:
*   Valid Frequency Range = 0.001GHz-12GHz
*   Ambient Temperature = 25 degC
*   Inductor Frequency Model
*   Use model for Frequency Domain simulations
*======================================================================
.subckt 0402HP-4N7_freq port1 port2 PARAMS: Cpar=0.052pF Ind=4.7nH
X1 port1 port2 Model2A PARAMS:
+ R1=13
+ R2=0.06
+ C= {Cpar}
+ K1=0.0000129
+ K2=0
+ K3= {Ind}
+ K4=0
+ K5=0
+ L=0
+ Is=0
+ a=0
+ L_Z0=0
+ L_EL=0
+ L_F0=0E6
+ PkZ=6325.92428
.ends 0402HP-4N7_freq

*======================================================================
* SPICE Model generated by Coilcraft
* Coilcraft Part Number : 0402HP-5N1
* Inductance = 5.1nH
*======================================================================
* Model Parameters:
*   Valid Frequency Range = 0.001GHz-12GHz
*   Ambient Temperature = 25 degC
*   Inductor Frequency Model
*   Use model for Frequency Domain simulations
*======================================================================
.subckt 0402HP-5N1_freq port1 port2 PARAMS: Cpar=0.044pF Ind=5.1nH
X1 port1 port2 Model2A PARAMS:
+ R1=15
+ R2=0.1
+ C= {Cpar}
+ K1=0.0000145
+ K2=0
+ K3= {Ind}
+ K4=0
+ K5=0
+ L=0
+ Is=0
+ a=0
+ L_Z0=0
+ L_EL=0
+ L_F0=0E6
+ PkZ=7034.08177
.ends 0402HP-5N1_freq

*======================================================================
* SPICE Model generated by Coilcraft
* Coilcraft Part Number : 0402HP-5N6
* Inductance = 5.6nH
*======================================================================
* Model Parameters:
*   Valid Frequency Range = 0.001GHz-12GHz
*   Ambient Temperature = 25 degC
*   Inductor Frequency Model
*   Use model for Frequency Domain simulations
*======================================================================
.subckt 0402HP-5N6_freq port1 port2 PARAMS: Cpar=0.032pF Ind=5.6nH
X1 port1 port2 Model2A PARAMS:
+ R1=1
+ R2=0.048
+ C= {Cpar}
+ K1=0.0000127
+ K2=0
+ K3= {Ind}
+ K4=0
+ K5=0
+ L=0
+ Is=0
+ a=0
+ L_Z0=0
+ L_EL=0
+ L_F0=0E6
+ PkZ=73382.8323
.ends 0402HP-5N6_freq

*======================================================================
* SPICE Model generated by Coilcraft
* Coilcraft Part Number : 0402HP-6N2
* Inductance = 6.2nH
*======================================================================
* Model Parameters:
*   Valid Frequency Range = 0.001GHz-12GHz
*   Ambient Temperature = 25 degC
*   Inductor Frequency Model
*   Use model for Frequency Domain simulations
*======================================================================
.subckt 0402HP-6N2_freq port1 port2 PARAMS: Cpar=0.047pF Ind=6.2nH
X1 port1 port2 Model2A PARAMS:
+ R1=15
+ R2=0.05
+ C= {Cpar}
+ K1=0.0000143
+ K2=0
+ K3= {Ind}
+ K4=0
+ K5=0
+ L=0
+ Is=0
+ a=0
+ L_Z0=0
+ L_EL=0
+ L_F0=0E6
+ PkZ=8060.00306
.ends 0402HP-6N2_freq

*======================================================================
* SPICE Model generated by Coilcraft
* Coilcraft Part Number : 0402HP-6N8
* Inductance = 6.8nH
*======================================================================
* Model Parameters:
*   Valid Frequency Range = 0.001GHz-12GHz
*   Ambient Temperature = 25 degC
*   Inductor Frequency Model
*   Use model for Frequency Domain simulations
*======================================================================
.subckt 0402HP-6N8_freq port1 port2 PARAMS: Cpar=0.049pF Ind=6.8nH
X1 port1 port2 Model2A PARAMS:
+ R1=15
+ R2=0.055
+ C= {Cpar}
+ K1=0.0000165
+ K2=0
+ K3= {Ind}
+ K4=0
+ K5=0
+ L=0
+ Is=0
+ a=0
+ L_Z0=0
+ L_EL=0
+ L_F0=0E6
+ PkZ=8396.86773
.ends 0402HP-6N8_freq

*======================================================================
* SPICE Model generated by Coilcraft
* Coilcraft Part Number : 0402HP-7N5
* Inductance = 7.5nH
*======================================================================
* Model Parameters:
*   Valid Frequency Range = 0.001GHz-10GHz
*   Ambient Temperature = 25 degC
*   Inductor Frequency Model
*   Use model for Frequency Domain simulations
*======================================================================
.subckt 0402HP-7N5_freq port1 port2 PARAMS: Cpar=0.051pF Ind=7.5nH
X1 port1 port2 Model2A PARAMS:
+ R1=12
+ R2=0.08
+ C= {Cpar}
+ K1=0.0000204
+ K2=0
+ K3= {Ind}
+ K4=0
+ K5=0
+ L=0
+ Is=0
+ a=0
+ L_Z0=0
+ L_EL=0
+ L_F0=0E6
+ PkZ=10630.8308
.ends 0402HP-7N5_freq

*======================================================================
* SPICE Model generated by Coilcraft
* Coilcraft Part Number : 0402HP-8N2
* Inductance = 8.2nH
*======================================================================
* Model Parameters:
*   Valid Frequency Range = 0.001GHz-10GHz
*   Ambient Temperature = 25 degC
*   Inductor Frequency Model
*   Use model for Frequency Domain simulations
*======================================================================
.subckt 0402HP-8N2_freq port1 port2 PARAMS: Cpar=0.036pF Ind=8.2nH
X1 port1 port2 Model2A PARAMS:
+ R1=17
+ R2=0.054
+ C= {Cpar}
+ K1=0.0000204
+ K2=0
+ K3= {Ind}
+ K4=0
+ K5=0
+ L=0
+ Is=0
+ a=0
+ L_Z0=0
+ L_EL=0
+ L_F0=0E6
+ PkZ=12019.2082
.ends 0402HP-8N2_freq

*======================================================================
* SPICE Model generated by Coilcraft
* Coilcraft Part Number : 0402HP-8N7
* Inductance = 8.7nH
*======================================================================
* Model Parameters:
*   Valid Frequency Range = 0.001GHz-10GHz
*   Ambient Temperature = 25 degC
*   Inductor Frequency Model
*   Use model for Frequency Domain simulations
*======================================================================
.subckt 0402HP-8N7_freq port1 port2 PARAMS: Cpar=0.048pF Ind=8.7nH
X1 port1 port2 Model2A PARAMS:
+ R1=11
+ R2=0.058
+ C= {Cpar}
+ K1=0.0000213
+ K2=0
+ K3= {Ind}
+ K4=0
+ K5=0
+ L=0
+ Is=0
+ a=0
+ L_Z0=0
+ L_EL=0
+ L_F0=0E6
+ PkZ=14077.3722
.ends 0402HP-8N7_freq

*======================================================================
* SPICE Model generated by Coilcraft
* Coilcraft Part Number : 0402HP-9N0
* Inductance = 9nH
*======================================================================
* Model Parameters:
*   Valid Frequency Range = 0.001GHz-10GHz
*   Ambient Temperature = 25 degC
*   Inductor Frequency Model
*   Use model for Frequency Domain simulations
*======================================================================
.subckt 0402HP-9N0_freq port1 port2 PARAMS: Cpar=0.039pF Ind=9nH
X1 port1 port2 Model2A PARAMS:
+ R1=18
+ R2=0.07
+ C= {Cpar}
+ K1=0.0000221
+ K2=0
+ K3= {Ind}
+ K4=0
+ K5=0
+ L=0
+ Is=0
+ a=0
+ L_Z0=0
+ L_EL=0
+ L_F0=0E6
+ PkZ=11525.4522
.ends 0402HP-9N0_freq

*======================================================================
* SPICE Model generated by Coilcraft
* Coilcraft Part Number : 0402HP-9N5
* Inductance = 9.5nH
*======================================================================
* Model Parameters:
*   Valid Frequency Range = 0.001GHz-10GHz
*   Ambient Temperature = 25 degC
*   Inductor Frequency Model
*   Use model for Frequency Domain simulations
*======================================================================
.subckt 0402HP-9N5_freq port1 port2 PARAMS: Cpar=0.048pF Ind=9.5nH
X1 port1 port2 Model2A PARAMS:
+ R1=10
+ R2=0.075
+ C= {Cpar}
+ K1=0.0000243
+ K2=0
+ K3= {Ind}
+ K4=0
+ K5=0
+ L=0
+ Is=0
+ a=0
+ L_Z0=0
+ L_EL=0
+ L_F0=0E6
+ PkZ=16364.0407
.ends 0402HP-9N5_freq

*======================================================================
* SPICE Model generated by Coilcraft
* Coilcraft Part Number : 0402HP-10N
* Inductance = 10nH
*======================================================================
* Model Parameters:
*   Valid Frequency Range = 0.001GHz-10GHz
*   Ambient Temperature = 25 degC
*   Inductor Frequency Model
*   Use model for Frequency Domain simulations
*======================================================================
.subckt 0402HP-10N_freq port1 port2 PARAMS: Cpar=0.051pF Ind=10nH
X1 port1 port2 Model2A PARAMS:
+ R1=4
+ R2=0.085
+ C= {Cpar}
+ K1=0.0000257
+ K2=0
+ K3= {Ind}
+ K4=0
+ K5=0
+ L=0
+ Is=0
+ a=0
+ L_Z0=0
+ L_EL=0
+ L_F0=0E6
+ PkZ=31845.6031
.ends 0402HP-10N_freq

*======================================================================
* SPICE Model generated by Coilcraft
* Coilcraft Part Number : 0402HP-11N
* Inductance = 11nH
*======================================================================
* Model Parameters:
*   Valid Frequency Range = 0.001GHz-10GHz
*   Ambient Temperature = 25 degC
*   Inductor Frequency Model
*   Use model for Frequency Domain simulations
*======================================================================
.subckt 0402HP-11N_freq port1 port2 PARAMS: Cpar=0.042pF Ind=11nH
X1 port1 port2 Model2A PARAMS:
+ R1=10
+ R2=0.065
+ C= {Cpar}
+ K1=0.0000267
+ K2=0
+ K3= {Ind}
+ K4=0
+ K5=0
+ L=0
+ Is=0
+ a=0
+ L_Z0=0
+ L_EL=0
+ L_F0=0E6
+ PkZ=21301.6948
.ends 0402HP-11N_freq

*======================================================================
* SPICE Model generated by Coilcraft
* Coilcraft Part Number : 0402HP-12N
* Inductance = 12nH
*======================================================================
* Model Parameters:
*   Valid Frequency Range = 0.001GHz-10GHz
*   Ambient Temperature = 25 degC
*   Inductor Frequency Model
*   Use model for Frequency Domain simulations
*======================================================================
.subckt 0402HP-12N_freq port1 port2 PARAMS: Cpar=0.043pF Ind=12nH
X1 port1 port2 Model2A PARAMS:
+ R1=10
+ R2=0.07
+ C= {Cpar}
+ K1=0.0000284
+ K2=0
+ K3= {Ind}
+ K4=0
+ K5=0
+ L=0
+ Is=0
+ a=0
+ L_Z0=0
+ L_EL=0
+ L_F0=0E6
+ PkZ=22551.4185
.ends 0402HP-12N_freq

*======================================================================
* SPICE Model generated by Coilcraft
* Coilcraft Part Number : 0402HP-13N
* Inductance = 13nH
*======================================================================
* Model Parameters:
*   Valid Frequency Range = 0.001GHz-9GHz
*   Ambient Temperature = 25 degC
*   Inductor Frequency Model
*   Use model for Frequency Domain simulations
*======================================================================
.subckt 0402HP-13N_freq port1 port2 PARAMS: Cpar=0.047pF Ind=13nH
X1 port1 port2 Model2A PARAMS:
+ R1=4
+ R2=0.14
+ C= {Cpar}
+ K1=0.000034
+ K2=0
+ K3= {Ind}
+ K4=0
+ K5=0
+ L=0
+ Is=0
+ a=0
+ L_Z0=0
+ L_EL=0
+ L_F0=0E6
+ PkZ=41111.7026
.ends 0402HP-13N_freq

*======================================================================
* SPICE Model generated by Coilcraft
* Coilcraft Part Number : 0402HP-15N
* Inductance = 15nH
*======================================================================
* Model Parameters:
*   Valid Frequency Range = 0.001GHz-9GHz
*   Ambient Temperature = 25 degC
*   Inductor Frequency Model
*   Use model for Frequency Domain simulations
*======================================================================
.subckt 0402HP-15N_freq port1 port2 PARAMS: Cpar=0.038pF Ind=15nH
X1 port1 port2 Model2A PARAMS:
+ R1=15
+ R2=0.078
+ C= {Cpar}
+ K1=0.00004
+ K2=0
+ K3= {Ind}
+ K4=0
+ K5=0
+ L=0
+ Is=0
+ a=0
+ L_Z0=0
+ L_EL=0
+ L_F0=0E6
+ PkZ=21617.1296
.ends 0402HP-15N_freq

*======================================================================
* SPICE Model generated by Coilcraft
* Coilcraft Part Number : 0402HP-16N
* Inductance = 16nH
*======================================================================
* Model Parameters:
*   Valid Frequency Range = 0.001GHz-8GHz
*   Ambient Temperature = 25 degC
*   Inductor Frequency Model
*   Use model for Frequency Domain simulations
*======================================================================
.subckt 0402HP-16N_freq port1 port2 PARAMS: Cpar=0.044pF Ind=16nH
X1 port1 port2 Model2A PARAMS:
+ R1=18
+ R2=0.13
+ C= {Cpar}
+ K1=0.000045
+ K2=0
+ K3= {Ind}
+ K4=0
+ K5=0
+ L=0
+ Is=0
+ a=0
+ L_Z0=0
+ L_EL=0
+ L_F0=0E6
+ PkZ=16932.91
.ends 0402HP-16N_freq

*======================================================================
* SPICE Model generated by Coilcraft
* Coilcraft Part Number : 0402HP-18N
* Inductance = 18nH
*======================================================================
* Model Parameters:
*   Valid Frequency Range = 0.001GHz-8GHz
*   Ambient Temperature = 25 degC
*   Inductor Frequency Model
*   Use model for Frequency Domain simulations
*======================================================================
.subckt 0402HP-18N_freq port1 port2 PARAMS: Cpar=0.04pF Ind=18nH
X1 port1 port2 Model2A PARAMS:
+ R1=5
+ R2=0.12
+ C= {Cpar}
+ K1=0.000054
+ K2=0
+ K3= {Ind}
+ K4=0
+ K5=0
+ L=0
+ Is=0
+ a=0
+ L_Z0=0
+ L_EL=0
+ L_F0=0E6
+ PkZ=49135.3638
.ends 0402HP-18N_freq

*======================================================================
* SPICE Model generated by Coilcraft
* Coilcraft Part Number : 0402HP-19N
* Inductance = 19nH
*======================================================================
* Model Parameters:
*   Valid Frequency Range = 0.001GHz-7GHz
*   Ambient Temperature = 25 degC
*   Inductor Frequency Model
*   Use model for Frequency Domain simulations
*======================================================================
.subckt 0402HP-19N_freq port1 port2 PARAMS: Cpar=0.04pF Ind=19nH
X1 port1 port2 Model2A PARAMS:
+ R1=22
+ R2=0.145
+ C= {Cpar}
+ K1=0.000047
+ K2=0
+ K3= {Ind}
+ K4=0
+ K5=0
+ L=0
+ Is=0
+ a=0
+ L_Z0=0
+ L_EL=0
+ L_F0=0E6
+ PkZ=18585.4981
.ends 0402HP-19N_freq

*======================================================================
* SPICE Model generated by Coilcraft
* Coilcraft Part Number : 0402HP-20N
* Inductance = 20nH
*======================================================================
* Model Parameters:
*   Valid Frequency Range = 0.001GHz-7GHz
*   Ambient Temperature = 25 degC
*   Inductor Frequency Model
*   Use model for Frequency Domain simulations
*======================================================================
.subckt 0402HP-20N_freq port1 port2 PARAMS: Cpar=0.038pF Ind=20nH
X1 port1 port2 Model2A PARAMS:
+ R1=18
+ R2=0.155
+ C= {Cpar}
+ K1=0.0000563
+ K2=0
+ K3= {Ind}
+ K4=0
+ K5=0
+ L=0
+ Is=0
+ a=0
+ L_Z0=0
+ L_EL=0
+ L_F0=0E6
+ PkZ=23633.0166
.ends 0402HP-20N_freq

*======================================================================
* SPICE Model generated by Coilcraft
* Coilcraft Part Number : 0402HP-22N
* Inductance = 22nH
*======================================================================
* Model Parameters:
*   Valid Frequency Range = 0.001GHz-7GHz
*   Ambient Temperature = 25 degC
*   Inductor Frequency Model
*   Use model for Frequency Domain simulations
*======================================================================
.subckt 0402HP-22N_freq port1 port2 PARAMS: Cpar=0.035pF Ind=22nH
X1 port1 port2 Model2A PARAMS:
+ R1=22
+ R2=0.16
+ C= {Cpar}
+ K1=0.0000628
+ K2=0
+ K3= {Ind}
+ K4=0
+ K5=0
+ L=0
+ Is=0
+ a=0
+ L_Z0=0
+ L_EL=0
+ L_F0=0E6
+ PkZ=23502.3033
.ends 0402HP-22N_freq

*======================================================================
* SPICE Model generated by Coilcraft
* Coilcraft Part Number : 0402HP-23N
* Inductance = 23nH
*======================================================================
* Model Parameters:
*   Valid Frequency Range = 0.001GHz-7GHz
*   Ambient Temperature = 25 degC
*   Inductor Frequency Model
*   Use model for Frequency Domain simulations
*======================================================================
.subckt 0402HP-23N_freq port1 port2 PARAMS: Cpar=0.036pF Ind=23nH
X1 port1 port2 Model2A PARAMS:
+ R1=18
+ R2=0.16
+ C= {Cpar}
+ K1=0.0000642
+ K2=0
+ K3= {Ind}
+ K4=0
+ K5=0
+ L=0
+ Is=0
+ a=0
+ L_Z0=0
+ L_EL=0
+ L_F0=0E6
+ PkZ=28060.4593
.ends 0402HP-23N_freq

*======================================================================
* SPICE Model generated by Coilcraft
* Coilcraft Part Number : 0402HP-24N
* Inductance = 24nH
*======================================================================
* Model Parameters:
*   Valid Frequency Range = 0.001GHz-7GHz
*   Ambient Temperature = 25 degC
*   Inductor Frequency Model
*   Use model for Frequency Domain simulations
*======================================================================
.subckt 0402HP-24N_freq port1 port2 PARAMS: Cpar=0.039pF Ind=24nH
X1 port1 port2 Model2A PARAMS:
+ R1=30
+ R2=0.17
+ C= {Cpar}
+ K1=0.000068
+ K2=0
+ K3= {Ind}
+ K4=0
+ K5=0
+ L=0
+ Is=0
+ a=0
+ L_Z0=0
+ L_EL=0
+ L_F0=0E6
+ PkZ=17643.8956
.ends 0402HP-24N_freq

*======================================================================
* SPICE Model generated by Coilcraft
* Coilcraft Part Number : 0402HP-26N
* Inductance = 26nH
*======================================================================
* Model Parameters:
*   Valid Frequency Range = 0.001GHz-7GHz
*   Ambient Temperature = 25 degC
*   Inductor Frequency Model
*   Use model for Frequency Domain simulations
*======================================================================
.subckt 0402HP-26N_freq port1 port2 PARAMS: Cpar=0.035pF Ind=26nH
X1 port1 port2 Model2A PARAMS:
+ R1=20
+ R2=0.29
+ C= {Cpar}
+ K1=0.000072
+ K2=0
+ K3= {Ind}
+ K4=0
+ K5=0
+ L=0
+ Is=0
+ a=0
+ L_Z0=0
+ L_EL=0
+ L_F0=0E6
+ PkZ=29452.4374
.ends 0402HP-26N_freq

*======================================================================
* SPICE Model generated by Coilcraft
* Coilcraft Part Number : 0402HP-27N
* Inductance = 27nH
*======================================================================
* Model Parameters:
*   Valid Frequency Range = 0.001GHz-7GHz
*   Ambient Temperature = 25 degC
*   Inductor Frequency Model
*   Use model for Frequency Domain simulations
*======================================================================
.subckt 0402HP-27N_freq port1 port2 PARAMS: Cpar=0.026pF Ind=27nH
X1 port1 port2 Model2A PARAMS:
+ R1=30
+ R2=0.275
+ C= {Cpar}
+ K1=0.000067
+ K2=0
+ K3= {Ind}
+ K4=0
+ K5=0
+ L=0
+ Is=0
+ a=0
+ L_Z0=0
+ L_EL=0
+ L_F0=0E6
+ PkZ=29521.2353
.ends 0402HP-27N_freq

*======================================================================
* SPICE Model generated by Coilcraft
* Coilcraft Part Number : 0402HP-30N
* Inductance = 30nH
*======================================================================
* Model Parameters:
*   Valid Frequency Range = 0.001GHz-7GHz
*   Ambient Temperature = 25 degC
*   Inductor Frequency Model
*   Use model for Frequency Domain simulations
*======================================================================
.subckt 0402HP-30N_freq port1 port2 PARAMS: Cpar=0.035pF Ind=30nH
X1 port1 port2 Model2A PARAMS:
+ R1=22
+ R2=0.275
+ C= {Cpar}
+ K1=0.000072
+ K2=0
+ K3= {Ind}
+ K4=0
+ K5=0
+ L=0
+ Is=0
+ a=0
+ L_Z0=0
+ L_EL=0
+ L_F0=0E6
+ PkZ=31701.7565
.ends 0402HP-30N_freq

*======================================================================
* SPICE Model generated by Coilcraft
* Coilcraft Part Number : 0402HP-33N
* Inductance = 33nH
*======================================================================
* Model Parameters:
*   Valid Frequency Range = 0.001GHz-7GHz
*   Ambient Temperature = 25 degC
*   Inductor Frequency Model
*   Use model for Frequency Domain simulations
*======================================================================
.subckt 0402HP-33N_freq port1 port2 PARAMS: Cpar=0.034pF Ind=33nH
X1 port1 port2 Model2A PARAMS:
+ R1=30
+ R2=0.33
+ C= {Cpar}
+ K1=0.0000778
+ K2=0
+ K3= {Ind}
+ K4=0
+ K5=0
+ L=0
+ Is=0
+ a=0
+ L_Z0=0
+ L_EL=0
+ L_F0=0E6
+ PkZ=27460.0486
.ends 0402HP-33N_freq

*======================================================================
* SPICE Model generated by Coilcraft
* Coilcraft Part Number : 0402HP-36N
* Inductance = 36nH
*======================================================================
* Model Parameters:
*   Valid Frequency Range = 0.001GHz-7GHz
*   Ambient Temperature = 25 degC
*   Inductor Frequency Model
*   Use model for Frequency Domain simulations
*======================================================================
.subckt 0402HP-36N_freq port1 port2 PARAMS: Cpar=0.028pF Ind=36nH
X1 port1 port2 Model2A PARAMS:
+ R1=32
+ R2=0.36
+ C= {Cpar}
+ K1=0.000094
+ K2=0
+ K3= {Ind}
+ K4=0
+ K5=0
+ L=0
+ Is=0
+ a=0
+ L_Z0=0
+ L_EL=0
+ L_F0=0E6
+ PkZ=33275.1158
.ends 0402HP-36N_freq

*======================================================================
* SPICE Model generated by Coilcraft
* Coilcraft Part Number : 0402HP-37N
* Inductance = 37nH
*======================================================================
* Model Parameters:
*   Valid Frequency Range = 0.001GHz-7GHz
*   Ambient Temperature = 25 degC
*   Inductor Frequency Model
*   Use model for Frequency Domain simulations
*======================================================================
.subckt 0402HP-37N_freq port1 port2 PARAMS: Cpar=0.032pF Ind=37nH
X1 port1 port2 Model2A PARAMS:
+ R1=26
+ R2=0.48
+ C= {Cpar}
+ K1=0.000097
+ K2=0
+ K3= {Ind}
+ K4=0
+ K5=0
+ L=0
+ Is=0
+ a=0
+ L_Z0=0
+ L_EL=0
+ L_F0=0E6
+ PkZ=35482.6127
.ends 0402HP-37N_freq

*======================================================================
* SPICE Model generated by Coilcraft
* Coilcraft Part Number : 0402HP-39N
* Inductance = 39nH
*======================================================================
* Model Parameters:
*   Valid Frequency Range = 0.001GHz-6GHz
*   Ambient Temperature = 25 degC
*   Inductor Frequency Model
*   Use model for Frequency Domain simulations
*======================================================================
.subckt 0402HP-39N_freq port1 port2 PARAMS: Cpar=0.033pF Ind=39nH
X1 port1 port2 Model2A PARAMS:
+ R1=38
+ R2=0.38
+ C= {Cpar}
+ K1=0.000086
+ K2=0
+ K3= {Ind}
+ K4=0
+ K5=0
+ L=0
+ Is=0
+ a=0
+ L_Z0=0
+ L_EL=0
+ L_F0=0E6
+ PkZ=27043.7495
.ends 0402HP-39N_freq

*======================================================================
* SPICE Model generated by Coilcraft
* Coilcraft Part Number : 0402HP-40N
* Inductance = 40nH
*======================================================================
* Model Parameters:
*   Valid Frequency Range = 0.001GHz-6GHz
*   Ambient Temperature = 25 degC
*   Inductor Frequency Model
*   Use model for Frequency Domain simulations
*======================================================================