*======================================================================
* SPICE Model generated by Coilcraft
* Coilcraft Part Number : 0402AF-200
* Inductance = 0.021uH
*======================================================================
* Model Parameters:
*   Valid Frequency Range = 1MHz-1000MHz
*   Ambient Temperature = 25 degC
*   Inductor Frequency Model
*   Use model for Frequency Domain simulations
*======================================================================
.subckt 0402AF-200_freq port1 port2 PARAMS: Cpar=2.3pF Ind=0.021uH
X1 port1 port2 Model1A PARAMS:
+ R1=260
+ R2=0.05
+ C= {Cpar}
+ K1=0.00002
+ K2=0.012
+ K3= {Ind}
+ K4=0.0007
+ K5=0.0000003
+ L=0
+ Is=0
+ a=0
+ L_Z0=0
+ L_EL=0
+ L_F0=0E6
+ PkZ=81.3556631
.ends 0402AF-200_freq

*======================================================================
* SPICE Model generated by Coilcraft
* Coilcraft Part Number : 0402AF-200
* Inductance = 0.021uH
*======================================================================
* Model Parameters:
*   Valid Frequency Range = 1MHz-1000MHz
*   Ambient Temperature = 25 degC
*   Inductor Impedance Model
*   Use model for Time Domain simulations
*======================================================================
.subckt 0402AF-200_imp port1 port2 PARAMS: Cpar=1.89pF Ind=0.021uH
X1 port1 port2 Model1D PARAMS:
+ R1=260
+ R2=0.05
+ C= {Cpar}
+ K1=0.00002
+ K2=0.012
+ K3= {Ind}
+ K4=0.0007
+ K5=0.0000003
+ L=0
+ Is=0
+ a=0
+ L_Z0=0
+ L_EL=0
+ L_F0=0E6
+ PkZ=81.3556631
.ends 0402AF-200_imp

*======================================================================
* SPICE Model generated by Coilcraft
* Coilcraft Part Number : 0402AF-220
* Inductance = 0.023uH
*======================================================================
* Model Parameters:
*   Valid Frequency Range = 1MHz-1000MHz
*   Ambient Temperature = 25 degC
*   Inductor Frequency Model
*   Use model for Frequency Domain simulations
*======================================================================
.subckt 0402AF-220_freq port1 port2 PARAMS: Cpar=1.93pF Ind=0.023uH
X1 port1 port2 Model1A PARAMS:
+ R1=230
+ R2=0.065
+ C= {Cpar}
+ K1=0.00002
+ K2=0.015
+ K3= {Ind}
+ K4=0.0008
+ K5=0.00000036
+ L=0
+ Is=0
+ a=0
+ L_Z0=0
+ L_EL=0
+ L_F0=0E6
+ PkZ=94.5338838
.ends 0402AF-220_freq

*======================================================================
* SPICE Model generated by Coilcraft
* Coilcraft Part Number : 0402AF-220
* Inductance = 0.023uH
*======================================================================
* Model Parameters:
*   Valid Frequency Range = 1MHz-1000MHz
*   Ambient Temperature = 25 degC
*   Inductor Impedance Model
*   Use model for Time Domain simulations
*======================================================================
.subckt 0402AF-220_imp port1 port2 PARAMS: Cpar=1.55pF Ind=0.023uH
X1 port1 port2 Model1D PARAMS:
+ R1=230
+ R2=0.065
+ C= {Cpar}
+ K1=0.00002
+ K2=0.015
+ K3= {Ind}
+ K4=0.0008
+ K5=0.00000036
+ L=0
+ Is=0
+ a=0
+ L_Z0=0
+ L_EL=0
+ L_F0=0E6
+ PkZ=94.5338838
.ends 0402AF-220_imp

*======================================================================
* SPICE Model generated by Coilcraft
* Coilcraft Part Number : 0402AF-330
* Inductance = 0.035uH
*======================================================================
* Model Parameters:
*   Valid Frequency Range = 1MHz-1000MHz
*   Ambient Temperature = 25 degC
*   Inductor Frequency Model
*   Use model for Frequency Domain simulations
*======================================================================
.subckt 0402AF-330_freq port1 port2 PARAMS: Cpar=0.83pF Ind=0.035uH
X1 port1 port2 Model1A PARAMS:
+ R1=450
+ R2=0.06
+ C= {Cpar}
+ K1=0.00002
+ K2=0.016
+ K3= {Ind}
+ K4=0.0014
+ K5=0.00000036
+ L=0
+ Is=0
+ a=0
+ L_Z0=0
+ L_EL=0
+ L_F0=0E6
+ PkZ=161.882694
.ends 0402AF-330_freq

*======================================================================
* SPICE Model generated by Coilcraft
* Coilcraft Part Number : 0402AF-330
* Inductance = 0.035uH
*======================================================================
* Model Parameters:
*   Valid Frequency Range = 1MHz-1000MHz
*   Ambient Temperature = 25 degC
*   Inductor Impedance Model
*   Use model for Time Domain simulations
*======================================================================
.subckt 0402AF-330_imp port1 port2 PARAMS: Cpar=0.64pF Ind=0.035uH
X1 port1 port2 Model1D PARAMS:
+ R1=450
+ R2=0.06
+ C= {Cpar}
+ K1=0.00002
+ K2=0.016
+ K3= {Ind}
+ K4=0.0014
+ K5=0.00000036
+ L=0
+ Is=0
+ a=0
+ L_Z0=0
+ L_EL=0
+ L_F0=0E6
+ PkZ=161.882694
.ends 0402AF-330_imp

*======================================================================
* SPICE Model generated by Coilcraft
* Coilcraft Part Number : 0402AF-360
* Inductance = 0.038uH
*======================================================================
* Model Parameters:
*   Valid Frequency Range = 1MHz-1000MHz
*   Ambient Temperature = 25 degC
*   Inductor Frequency Model
*   Use model for Frequency Domain simulations
*======================================================================
.subckt 0402AF-360_freq port1 port2 PARAMS: Cpar=1.49pF Ind=0.038uH
X1 port1 port2 Model1A PARAMS:
+ R1=500
+ R2=0.075
+ C= {Cpar}
+ K1=0.00005
+ K2=0.023
+ K3= {Ind}
+ K4=0.0015
+ K5=0.0000005
+ L=0
+ Is=0
+ a=0
+ L_Z0=0
+ L_EL=0
+ L_F0=0E6
+ PkZ=132.932465
.ends 0402AF-360_freq

*======================================================================
* SPICE Model generated by Coilcraft
* Coilcraft Part Number : 0402AF-360
* Inductance = 0.038uH
*======================================================================
* Model Parameters:
*   Valid Frequency Range = 1MHz-1000MHz
*   Ambient Temperature = 25 degC
*   Inductor Impedance Model
*   Use model for Time Domain simulations
*======================================================================
.subckt 0402AF-360_imp port1 port2 PARAMS: Cpar=1.15pF Ind=0.038uH
X1 port1 port2 Model1D PARAMS:
+ R1=500
+ R2=0.075
+ C= {Cpar}
+ K1=0.00005
+ K2=0.023
+ K3= {Ind}
+ K4=0.0015
+ K5=0.0000005
+ L=0
+ Is=0
+ a=0
+ L_Z0=0
+ L_EL=0
+ L_F0=0E6
+ PkZ=132.932465
.ends 0402AF-360_imp

*======================================================================
* SPICE Model generated by Coilcraft
* Coilcraft Part Number : 0402AF-390
* Inductance = 0.041uH
*======================================================================
* Model Parameters:
*   Valid Frequency Range = 1MHz-1000MHz
*   Ambient Temperature = 25 degC
*   Inductor Frequency Model
*   Use model for Frequency Domain simulations
*======================================================================
.subckt 0402AF-390_freq port1 port2 PARAMS: Cpar=1.49pF Ind=0.041uH
X1 port1 port2 Model1A PARAMS:
+ R1=400
+ R2=0.115
+ C= {Cpar}
+ K1=0.000046
+ K2=0.025
+ K3= {Ind}
+ K4=0.0013
+ K5=0.0000004
+ L=0
+ Is=0
+ a=0
+ L_Z0=0
+ L_EL=0
+ L_F0=0E6
+ PkZ=144.171442
.ends 0402AF-390_freq

*======================================================================
* SPICE Model generated by Coilcraft
* Coilcraft Part Number : 0402AF-390
* Inductance = 0.041uH
*======================================================================
* Model Parameters:
*   Valid Frequency Range = 1MHz-1000MHz
*   Ambient Temperature = 25 degC
*   Inductor Impedance Model
*   Use model for Time Domain simulations
*======================================================================
.subckt 0402AF-390_imp port1 port2 PARAMS: Cpar=1.23pF Ind=0.041uH
X1 port1 port2 Model1D PARAMS:
+ R1=400
+ R2=0.115
+ C= {Cpar}
+ K1=0.000046
+ K2=0.025
+ K3= {Ind}
+ K4=0.0013
+ K5=0.0000004
+ L=0
+ Is=0
+ a=0
+ L_Z0=0
+ L_EL=0
+ L_F0=0E6
+ PkZ=144.171442
.ends 0402AF-390_imp

*======================================================================
* SPICE Model generated by Coilcraft
* Coilcraft Part Number : 0402AF-510
* Inductance = 0.054uH
*======================================================================
* Model Parameters:
*   Valid Frequency Range = 1MHz-1000MHz
*   Ambient Temperature = 25 degC
*   Inductor Frequency Model
*   Use model for Frequency Domain simulations
*======================================================================
.subckt 0402AF-510_freq port1 port2 PARAMS: Cpar=0.84pF Ind=0.054uH
X1 port1 port2 Model1A PARAMS:
+ R1=660
+ R2=0.07
+ C= {Cpar}
+ K1=0.000056
+ K2=0.035
+ K3= {Ind}
+ K4=0.0022
+ K5=0.0000004
+ L=0
+ Is=0
+ a=0
+ L_Z0=0
+ L_EL=0
+ L_F0=0E6
+ PkZ=212.115359
.ends 0402AF-510_freq

*======================================================================
* SPICE Model generated by Coilcraft
* Coilcraft Part Number : 0402AF-510
* Inductance = 0.054uH
*======================================================================
* Model Parameters:
*   Valid Frequency Range = 1MHz-1000MHz
*   Ambient Temperature = 25 degC
*   Inductor Impedance Model
*   Use model for Time Domain simulations
*======================================================================
.subckt 0402AF-510_imp port1 port2 PARAMS: Cpar=0.64pF Ind=0.054uH
X1 port1 port2 Model1D PARAMS:
+ R1=660
+ R2=0.07
+ C= {Cpar}
+ K1=0.000056
+ K2=0.035
+ K3= {Ind}
+ K4=0.0022
+ K5=0.0000004
+ L=0
+ Is=0
+ a=0
+ L_Z0=0
+ L_EL=0
+ L_F0=0E6
+ PkZ=212.115359
.ends 0402AF-510_imp

*======================================================================
* SPICE Model generated by Coilcraft
* Coilcraft Part Number : 0402AF-560
* Inductance = 0.06uH
*======================================================================
* Model Parameters:
*   Valid Frequency Range = 1MHz-1000MHz
*   Ambient Temperature = 25 degC
*   Inductor Frequency Model
*   Use model for Frequency Domain simulations
*======================================================================
.subckt 0402AF-560_freq port1 port2 PARAMS: Cpar=1.02pF Ind=0.06uH
X1 port1 port2 Model1A PARAMS:
+ R1=500
+ R2=0.095
+ C= {Cpar}
+ K1=0.000048
+ K2=0.037
+ K3= {Ind}
+ K4=0.0018
+ K5=0.0000009
+ L=0
+ Is=0
+ a=0
+ L_Z0=0
+ L_EL=0
+ L_F0=0E6
+ PkZ=211.571639
.ends 0402AF-560_freq

*======================================================================
* SPICE Model generated by Coilcraft
* Coilcraft Part Number : 0402AF-560
* Inductance = 0.06uH
*======================================================================
* Model Parameters:
*   Valid Frequency Range = 1MHz-1000MHz
*   Ambient Temperature = 25 degC
*   Inductor Impedance Model
*   Use model for Time Domain simulations
*======================================================================
.subckt 0402AF-560_imp port1 port2 PARAMS: Cpar=0.83pF Ind=0.06uH
X1 port1 port2 Model1D PARAMS:
+ R1=500
+ R2=0.095
+ C= {Cpar}
+ K1=0.000048
+ K2=0.037
+ K3= {Ind}
+ K4=0.0018
+ K5=0.0000009
+ L=0
+ Is=0
+ a=0
+ L_Z0=0
+ L_EL=0
+ L_F0=0E6
+ PkZ=211.571639
.ends 0402AF-560_imp

*======================================================================
* SPICE Model generated by Coilcraft
* Coilcraft Part Number : 0402AF-720
* Inductance = 0.078uH
*======================================================================
* Model Parameters:
*   Valid Frequency Range = 1MHz-1000MHz
*   Ambient Temperature = 25 degC
*   Inductor Frequency Model
*   Use model for Frequency Domain simulations
*======================================================================
.subckt 0402AF-720_freq port1 port2 PARAMS: Cpar=0.228pF Ind=0.078uH
X1 port1 port2 Model1A PARAMS:
+ R1=660
+ R2=0.1
+ C= {Cpar}
+ K1=0.000008
+ K2=0.03
+ K3= {Ind}
+ K4=0.0029
+ K5=0.0000009
+ L=0
+ Is=0
+ a=0
+ L_Z0=0
+ L_EL=0
+ L_F0=0E6
+ PkZ=444.876414
.ends 0402AF-720_freq

*======================================================================
* SPICE Model generated by Coilcraft
* Coilcraft Part Number : 0402AF-720
* Inductance = 0.078uH
*======================================================================
* Model Parameters:
*   Valid Frequency Range = 1MHz-1000MHz
*   Ambient Temperature = 25 degC
*   Inductor Impedance Model
*   Use model for Time Domain simulations
*======================================================================
.subckt 0402AF-720_imp port1 port2 PARAMS: Cpar=0.17pF Ind=0.078uH
X1 port1 port2 Model1D PARAMS:
+ R1=660
+ R2=0.1
+ C= {Cpar}
+ K1=0.000008
+ K2=0.03
+ K3= {Ind}
+ K4=0.0029
+ K5=0.0000009
+ L=0
+ Is=0
+ a=0
+ L_Z0=0
+ L_EL=0
+ L_F0=0E6
+ PkZ=444.876414
.ends 0402AF-720_imp

*======================================================================
* SPICE Model generated by Coilcraft
* Coilcraft Part Number : 0402AF-780
* Inductance = 0.084uH
*======================================================================
* Model Parameters:
*   Valid Frequency Range = 1MHz-1000MHz
*   Ambient Temperature = 25 degC
*   Inductor Frequency Model
*   Use model for Frequency Domain simulations
*======================================================================
.subckt 0402AF-780_freq port1 port2 PARAMS: Cpar=0.303pF Ind=0.084uH
X1 port1 port2 Model1A PARAMS:
+ R1=800
+ R2=0.13
+ C= {Cpar}
+ K1=0.00003
+ K2=0.037
+ K3= {Ind}
+ K4=0.0031
+ K5=0.0000009
+ L=0
+ Is=0
+ a=0
+ L_Z0=0
+ L_EL=0
+ L_F0=0E6
+ PkZ=413.828863
.ends 0402AF-780_freq

*======================================================================
* SPICE Model generated by Coilcraft
* Coilcraft Part Number : 0402AF-780
* Inductance = 0.084uH
*======================================================================
* Model Parameters:
*   Valid Frequency Range = 1MHz-1000MHz
*   Ambient Temperature = 25 degC
*   Inductor Impedance Model
*   Use model for Time Domain simulations
*======================================================================
.subckt 0402AF-780_imp port1 port2 PARAMS: Cpar=0.23pF Ind=0.084uH
X1 port1 port2 Model1D PARAMS:
+ R1=800
+ R2=0.13
+ C= {Cpar}
+ K1=0.00003
+ K2=0.037
+ K3= {Ind}
+ K4=0.0031
+ K5=0.0000009
+ L=0
+ Is=0
+ a=0
+ L_Z0=0
+ L_EL=0
+ L_F0=0E6
+ PkZ=413.828863
.ends 0402AF-780_imp

*======================================================================
* SPICE Model generated by Coilcraft
* Coilcraft Part Number : 0402AF-101
* Inductance = 0.11uH
*======================================================================
* Model Parameters:
*   Valid Frequency Range = 1MHz-1000MHz
*   Ambient Temperature = 25 degC
*   Inductor Frequency Model
*   Use model for Frequency Domain simulations
*======================================================================
.subckt 0402AF-101_freq port1 port2 PARAMS: Cpar=0.276pF Ind=0.11uH
X1 port1 port2 Model1A PARAMS:
+ R1=1200
+ R2=0.16
+ C= {Cpar}
+ K1=0.000018
+ K2=0.049
+ K3= {Ind}
+ K4=0.004
+ K5=0.0000015
+ L=0
+ Is=0
+ a=0
+ L_Z0=0
+ L_EL=0
+ L_F0=0E6
+ PkZ=492.048899
.ends 0402AF-101_freq

*======================================================================
* SPICE Model generated by Coilcraft
* Coilcraft Part Number : 0402AF-101
* Inductance = 0.11uH
*======================================================================
* Model Parameters:
*   Valid Frequency Range = 1MHz-1000MHz
*   Ambient Temperature = 25 degC
*   Inductor Impedance Model
*   Use model for Time Domain simulations
*======================================================================
.subckt 0402AF-101_imp port1 port2 PARAMS: Cpar=0.20pF Ind=0.11uH
X1 port1 port2 Model1D PARAMS:
+ R1=1200
+ R2=0.16
+ C= {Cpar}
+ K1=0.000018
+ K2=0.049
+ K3= {Ind}
+ K4=0.004
+ K5=0.0000015
+ L=0
+ Is=0
+ a=0
+ L_Z0=0
+ L_EL=0
+ L_F0=0E6
+ PkZ=492.048899
.ends 0402AF-101_imp

*======================================================================
* SPICE Model generated by Coilcraft
* Coilcraft Part Number : 0402AF-141
* Inductance = 0.15uH
*======================================================================
* Model Parameters:
*   Valid Frequency Range = 1MHz-1000MHz
*   Ambient Temperature = 25 degC
*   Inductor Frequency Model
*   Use model for Frequency Domain simulations
*======================================================================
.subckt 0402AF-141_freq port1 port2 PARAMS: Cpar=0.171pF Ind=0.15uH
X1 port1 port2 Model1A PARAMS:
+ R1=1800
+ R2=0.26
+ C= {Cpar}
+ K1=0.00004
+ K2=0.065
+ K3= {Ind}
+ K4=0.005
+ K5=0.0000009
+ L=0
+ Is=0
+ a=0
+ L_Z0=0
+ L_EL=0
+ L_F0=0E6
+ PkZ=732.246243
.ends 0402AF-141_freq

*======================================================================
* SPICE Model generated by Coilcraft
* Coilcraft Part Number : 0402AF-141
* Inductance = 0.15uH
*======================================================================
* Model Parameters:
*   Valid Frequency Range = 1MHz-1000MHz
*   Ambient Temperature = 25 degC
*   Inductor Impedance Model
*   Use model for Time Domain simulations
*======================================================================
.subckt 0402AF-141_imp port1 port2 PARAMS: Cpar=0.13pF Ind=0.15uH
X1 port1 port2 Model1D PARAMS:
+ R1=1800
+ R2=0.26
+ C= {Cpar}
+ K1=0.00004
+ K2=0.065
+ K3= {Ind}
+ K4=0.005
+ K5=0.0000009
+ L=0
+ Is=0
+ a=0
+ L_Z0=0
+ L_EL=0
+ L_F0=0E6
+ PkZ=732.246243
.ends 0402AF-141_imp

*======================================================================
* SPICE Model generated by Coilcraft
* Coilcraft Part Number : 0402AF-181
* Inductance = 0.19uH
*======================================================================
* Model Parameters:
*   Valid Frequency Range = 1MHz-1000MHz
*   Ambient Temperature = 25 degC
*   Inductor Frequency Model
*   Use model for Frequency Domain simulations
*======================================================================
.subckt 0402AF-181_freq port1 port2 PARAMS: Cpar=0.106pF Ind=0.19uH
X1 port1 port2 Model1A PARAMS:
+ R1=1800
+ R2=0.28
+ C= {Cpar}
+ K1=0.00012
+ K2=0.098
+ K3= {Ind}
+ K4=0.0059
+ K5=0.0000006
+ L=0
+ Is=0
+ a=0
+ L_Z0=0
+ L_EL=0
+ L_F0=0E6
+ PkZ=1119.35467
.ends 0402AF-181_freq

*======================================================================
* SPICE Model generated by Coilcraft
* Coilcraft Part Number : 0402AF-181
* Inductance = 0.19uH
*======================================================================
* Model Parameters:
*   Valid Frequency Range = 1MHz-1000MHz
*   Ambient Temperature = 25 degC
*   Inductor Impedance Model
*   Use model for Time Domain simulations
*======================================================================
.subckt 0402AF-181_imp port1 port2 PARAMS: Cpar=0.08pF Ind=0.19uH
X1 port1 port2 Model1D PARAMS:
+ R1=1800
+ R2=0.28
+ C= {Cpar}
+ K1=0.00012
+ K2=0.098
+ K3= {Ind}
+ K4=0.0059
+ K5=0.0000006
+ L=0
+ Is=0
+ a=0
+ L_Z0=0
+ L_EL=0
+ L_F0=0E6
+ PkZ=1119.35467
.ends 0402AF-181_imp

*======================================================================
* SPICE Model generated by Coilcraft
* Coilcraft Part Number : 0402AF-221
* Inductance = 0.24uH
*======================================================================
* Model Parameters:
*   Valid Frequency Range = 1MHz-1000MHz
*   Ambient Temperature = 25 degC
*   Inductor Frequency Model
*   Use model for Frequency Domain simulations
*======================================================================
.subckt 0402AF-221_freq port1 port2 PARAMS: Cpar=0.073pF Ind=0.24uH
X1 port1 port2 Model1A PARAMS:
+ R1=2600
+ R2=0.53
+ C= {Cpar}
+ K1=0.00008
+ K2=0.1
+ K3= {Ind}
+ K4=0.0087
+ K5=0.0000011
+ L=0
+ Is=0
+ a=0
+ L_Z0=0
+ L_EL=0
+ L_F0=0E6
+ PkZ=1372.37785
.ends 0402AF-221_freq

*======================================================================
* SPICE Model generated by Coilcraft
* Coilcraft Part Number : 0402AF-221
* Inductance = 0.24uH
*======================================================================
* Model Parameters:
*   Valid Frequency Range = 1MHz-1000MHz
*   Ambient Temperature = 25 degC
*   Inductor Impedance Model
*   Use model for Time Domain simulations
*======================================================================
.subckt 0402AF-221_imp port1 port2 PARAMS: Cpar=0.05pF Ind=0.24uH
X1 port1 port2 Model1D PARAMS:
+ R1=2600
+ R2=0.53
+ C= {Cpar}
+ K1=0.00008
+ K2=0.1
+ K3= {Ind}
+ K4=0.0087
+ K5=0.0000011
+ L=0
+ Is=0
+ a=0
+ L_Z0=0
+ L_EL=0
+ L_F0=0E6
+ PkZ=1372.37785
.ends 0402AF-221_imp

*======================================================================
* SPICE Model generated by Coilcraft
* Coilcraft Part Number : 0402AF-251
* Inductance = 0.27uH
*======================================================================
* Model Parameters:
*   Valid Frequency Range = 1MHz-1000MHz
*   Ambient Temperature = 25 degC
*   Inductor Frequency Model
*   Use model for Frequency Domain simulations
*======================================================================
.subckt 0402AF-251_freq port1 port2 PARAMS: Cpar=0.05pF Ind=0.27uH
X1 port1 port2 Model1A PARAMS:
+ R1=2400
+ R2=0.36
+ C= {Cpar}
+ K1=0.00013
+ K2=0.115
+ K3= {Ind}
+ K4=0.0098
+ K5=0.0000009
+ L=0
+ Is=0
+ a=0
+ L_Z0=0
+ L_EL=0
+ L_F0=0E6
+ PkZ=1809.84545
.ends 0402AF-251_freq

*======================================================================
* SPICE Model generated by Coilcraft
* Coilcraft Part Number : 0402AF-251
* Inductance = 0.27uH
*======================================================================
* Model Parameters:
*   Valid Frequency Range = 1MHz-1000MHz
*   Ambient Temperature = 25 degC
*   Inductor Impedance Model
*   Use model for Time Domain simulations
*======================================================================
.subckt 0402AF-251_imp port1 port2 PARAMS: Cpar=0.04pF Ind=0.27uH
X1 port1 port2 Model1D PARAMS:
+ R1=2400
+ R2=0.36
+ C= {Cpar}
+ K1=0.00013
+ K2=0.115
+ K3= {Ind}
+ K4=0.0098
+ K5=0.0000009
+ L=0
+ Is=0
+ a=0
+ L_Z0=0
+ L_EL=0
+ L_F0=0E6
+ PkZ=1809.84545
.ends 0402AF-251_imp

*======================================================================
* SPICE Model generated by Coilcraft
* Coilcraft Part Number : 0402AF-271
* Inductance = 0.29uH
*======================================================================
* Model Parameters:
*   Valid Frequency Range = 1MHz-1000MHz
*   Ambient Temperature = 25 degC
*   Inductor Frequency Model
*   Use model for Frequency Domain simulations
*======================================================================
.subckt 0402AF-271_freq port1 port2 PARAMS: Cpar=0.066pF Ind=0.29uH
X1 port1 port2 Model1A PARAMS:
+ R1=4000
+ R2=0.55
+ C= {Cpar}
+ K1=0.00009
+ K2=0.128
+ K3= {Ind}
+ K4=0.0098
+ K5=0.0000009
+ L=0
+ Is=0
+ a=0
+ L_Z0=0
+ L_EL=0
+ L_F0=0E6
+ PkZ=1612.25733
.ends 0402AF-271_freq

*======================================================================
* SPICE Model generated by Coilcraft
* Coilcraft Part Number : 0402AF-271
* Inductance = 0.29uH
*======================================================================
* Model Parameters:
*   Valid Frequency Range = 1MHz-1000MHz
*   Ambient Temperature = 25 degC
*   Inductor Impedance Model
*   Use model for Time Domain simulations
*======================================================================
.subckt 0402AF-271_imp port1 port2 PARAMS: Cpar=0.05pF Ind=0.29uH
X1 port1 port2 Model1D PARAMS:
+ R1=4000
+ R2=0.55
+ C= {Cpar}
+ K1=0.00009
+ K2=0.128
+ K3= {Ind}
+ K4=0.0098
+ K5=0.0000009
+ L=0
+ Is=0
+ a=0
+ L_Z0=0
+ L_EL=0
+ L_F0=0E6
+ PkZ=1612.25733
.ends 0402AF-271_imp

*======================================================================
* SPICE Model generated by Coilcraft
* Coilcraft Part Number : 0402AF-301
* Inductance = 0.32uH
*======================================================================
* Model Parameters:
*   Valid Frequency Range = 1MHz-1000MHz
*   Ambient Temperature = 25 degC
*   Inductor Frequency Model
*   Use model for Frequency Domain simulations
*======================================================================
.subckt 0402AF-301_freq port1 port2 PARAMS: Cpar=0.055pF Ind=0.32uH
X1 port1 port2 Model1A PARAMS:
+ R1=1450
+ R2=0.41
+ C= {Cpar}
+ K1=0.000078
+ K2=0.128
+ K3= {Ind}
+ K4=0.011
+ K5=0.0000007
+ L=0
+ Is=0
+ a=0
+ L_Z0=0
+ L_EL=0
+ L_F0=0E6
+ PkZ=2178.90721
.ends 0402AF-301_freq

*======================================================================
* SPICE Model generated by Coilcraft
* Coilcraft Part Number : 0402AF-301
* Inductance = 0.32uH
*======================================================================
* Model Parameters:
*   Valid Frequency Range = 1MHz-1000MHz
*   Ambient Temperature = 25 degC
*   Inductor Impedance Model
*   Use model for Time Domain simulations
*======================================================================
.subckt 0402AF-301_imp port1 port2 PARAMS: Cpar=0.04pF Ind=0.32uH
X1 port1 port2 Model1D PARAMS:
+ R1=1450
+ R2=0.41
+ C= {Cpar}
+ K1=0.000078
+ K2=0.128
+ K3= {Ind}
+ K4=0.011
+ K5=0.0000007
+ L=0
+ Is=0
+ a=0
+ L_Z0=0
+ L_EL=0
+ L_F0=0E6
+ PkZ=2178.90721
.ends 0402AF-301_imp

*======================================================================
* SPICE Model generated by Coilcraft
* Coilcraft Part Number : 0402AF-361
* Inductance = 0.38uH
*======================================================================
* Model Parameters:
*   Valid Frequency Range = 1MHz-1000MHz
*   Ambient Temperature = 25 degC
*   Inductor Frequency Model
*   Use model for Frequency Domain simulations
*======================================================================
.subckt 0402AF-361_freq port1 port2 PARAMS: Cpar=0.041pF Ind=0.38uH
X1 port1 port2 Model1A PARAMS:
+ R1=3200
+ R2=0.575
+ C= {Cpar}
+ K1=0.000115
+ K2=0.181
+ K3= {Ind}
+ K4=0.013
+ K5=0.00000058
+ L=0
+ Is=0
+ a=0
+ L_Z0=0
+ L_EL=0
+ L_F0=0E6
+ PkZ=2518.53101
.ends 0402AF-361_freq

*======================================================================
* SPICE Model generated by Coilcraft
* Coilcraft Part Number : 0402AF-361
* Inductance = 0.38uH
*======================================================================
* Model Parameters:
*   Valid Frequency Range = 1MHz-1000MHz
*   Ambient Temperature = 25 degC
*   Inductor Impedance Model
*   Use model for Time Domain simulations
*======================================================================
.subckt 0402AF-361_imp port1 port2 PARAMS: Cpar=0.03pF Ind=0.38uH
X1 port1 port2 Model1D PARAMS:
+ R1=3200
+ R2=0.575
+ C= {Cpar}
+ K1=0.000115
+ K2=0.181
+ K3= {Ind}
+ K4=0.013
+ K5=0.00000058
+ L=0
+ Is=0
+ a=0
+ L_Z0=0
+ L_EL=0
+ L_F0=0E6
+ PkZ=2518.53101
.ends 0402AF-361_imp

*======================================================================
* SPICE Model generated by Coilcraft
* Coilcraft Part Number : 0402AF-421
* Inductance = 0.44uH
*======================================================================
* Model Parameters:
*   Valid Frequency Range = 1MHz-1000MHz
*   Ambient Temperature = 25 degC
*   Inductor Frequency Model
*   Use model for Frequency Domain simulations
*======================================================================
.subckt 0402AF-421_freq port1 port2 PARAMS: Cpar=0.037pF Ind=0.44uH
X1 port1 port2 Model1A PARAMS:
+ R1=2750
+ R2=0.7
+ C= {Cpar}
+ K1=0.00015
+ K2=0.254
+ K3= {Ind}
+ K4=0.014
+ K5=0.0000005
+ L=0
+ Is=0
+ a=0
+ L_Z0=0
+ L_EL=0
+ L_F0=0E6
+ PkZ=3282.54203
.ends 0402AF-421_freq

*======================================================================
* SPICE Model generated by Coilcraft
* Coilcraft Part Number : 0402AF-421
* Inductance = 0.44uH
*======================================================================
* Model Parameters:
*   Valid Frequency Range = 1MHz-1000MHz
*   Ambient Temperature = 25 degC
*   Inductor Impedance Model
*   Use model for Time Domain simulations
*======================================================================
.subckt 0402AF-421_imp port1 port2 PARAMS: Cpar=0.03pF Ind=0.44uH
X1 port1 port2 Model1D PARAMS:
+ R1=2750
+ R2=0.7
+ C= {Cpar}
+ K1=0.00015
+ K2=0.254
+ K3= {Ind}
+ K4=0.014
+ K5=0.0000005
+ L=0
+ Is=0
+ a=0
+ L_Z0=0
+ L_EL=0
+ L_F0=0E6
+ PkZ=3282.54203
.ends 0402AF-421_imp

*======================================================================
* SPICE Model generated by Coilcraft
* Coilcraft Part Number : 0402AF-471
* Inductance = 0.495uH
*======================================================================
* Model Parameters:
*   Valid Frequency Range = 1MHz-1000MHz
*   Ambient Temperature = 25 degC
*   Inductor Frequency Model
*   Use model for Frequency Domain simulations
*======================================================================
.subckt 0402AF-471_freq port1 port2 PARAMS: Cpar=0.044pF Ind=0.495uH
X1 port1 port2 Model1A PARAMS:
+ R1=2000
+ R2=0.73
+ C= {Cpar}
+ K1=0.00032
+ K2=0.29
+ K3= {Ind}
+ K4=0.017
+ K5=0.00000054
+ L=0
+ Is=0
+ a=0
+ L_Z0=0
+ L_EL=0
+ L_F0=0E6
+ PkZ=3598.62465
.ends 0402AF-471_freq

*======================================================================
* SPICE Model generated by Coilcraft
* Coilcraft Part Number : 0402AF-471
* Inductance = 0.495uH
*======================================================================
* Model Parameters:
*   Valid Frequency Range = 1MHz-1000MHz
*   Ambient Temperature = 25 degC
*   Inductor Impedance Model
*   Use model for Time Domain simulations
*======================================================================
.subckt 0402AF-471_imp port1 port2 PARAMS: Cpar=0.03pF Ind=0.495uH
X1 port1 port2 Model1D PARAMS:
+ R1=2000
+ R2=0.73
+ C= {Cpar}
+ K1=0.00032
+ K2=0.29
+ K3= {Ind}
+ K4=0.017
+ K5=0.00000054
+ L=0
+ Is=0