*======================================================================
* SPICE Model generated by Coilcraft
* Coilcraft Part Number : 0402CS-1N0
* Inductance = 1nH
*======================================================================
* Model Parameters:
*   Valid Frequency Range = 0.001GHz-21.3GHz
*   Ambient Temperature = 25 degC
*   Inductor Frequency Model
*   Use model for Frequency Domain simulations
*======================================================================
.subckt 0402CS-1N0_freq port1 port2 PARAMS: Cpar=0.068pF Ind=1nH
X1 port1 port2 Model2A PARAMS:
+ R1=6
+ R2=0.001
+ C= {Cpar}
+ K1=0.0000034
+ K2=0
+ K3= {Ind}
+ K4=0
+ K5=0
+ L=0
+ Is=0
+ a=0
+ L_Z0=0
+ L_EL=0
+ L_F0=0E6
+ PkZ=2274.90708
.ends 0402CS-1N0_freq

*======================================================================
* SPICE Model generated by Coilcraft
* Coilcraft Part Number : 0402CS-1N2
* Inductance = 1.2nH
*======================================================================
* Model Parameters:
*   Valid Frequency Range = 0.001GHz-21.3GHz
*   Ambient Temperature = 25 degC
*   Inductor Frequency Model
*   Use model for Frequency Domain simulations
*======================================================================
.subckt 0402CS-1N2_freq port1 port2 PARAMS: Cpar=0.014pF Ind=1.2nH
X1 port1 port2 Model2A PARAMS:
+ R1=5.78
+ R2=0.09
+ C= {Cpar}
+ K1=0.0000059
+ K2=0
+ K3= {Ind}
+ K4=0
+ K5=0
+ L=0
+ Is=0
+ a=0
+ L_Z0=0
+ L_EL=0
+ L_F0=0E6
+ PkZ=12348.7082
.ends 0402CS-1N2_freq

*======================================================================
* SPICE Model generated by Coilcraft
* Coilcraft Part Number : 0402CS-1N8
* Inductance = 1.8nH
*======================================================================
* Model Parameters:
*   Valid Frequency Range = 0.001GHz-21.3GHz
*   Ambient Temperature = 25 degC
*   Inductor Frequency Model
*   Use model for Frequency Domain simulations
*======================================================================
.subckt 0402CS-1N8_freq port1 port2 PARAMS: Cpar=0.027pF Ind=1.8nH
X1 port1 port2 Model2A PARAMS:
+ R1=7.3
+ R2=0.07
+ C= {Cpar}
+ K1=0.00000942
+ K2=0
+ K3= {Ind}
+ K4=0
+ K5=0
+ L=0
+ Is=0
+ a=0
+ L_Z0=0
+ L_EL=0
+ L_F0=0E6
+ PkZ=7645.59204
.ends 0402CS-1N8_freq

*======================================================================
* SPICE Model generated by Coilcraft
* Coilcraft Part Number : 0402CS-1N9
* Inductance = 1.9nH
*======================================================================
* Model Parameters:
*   Valid Frequency Range = 0.001GHz-21.2GHz
*   Ambient Temperature = 25 degC
*   Inductor Frequency Model
*   Use model for Frequency Domain simulations
*======================================================================
.subckt 0402CS-1N9_freq port1 port2 PARAMS: Cpar=0.036pF Ind=1.9nH
X1 port1 port2 Model2A PARAMS:
+ R1=12
+ R2=0.002
+ C= {Cpar}
+ K1=0.0000101
+ K2=0
+ K3= {Ind}
+ K4=0
+ K5=0
+ L=0
+ Is=0
+ a=0
+ L_Z0=0
+ L_EL=0
+ L_F0=0E6
+ PkZ=3943.76283
.ends 0402CS-1N9_freq

*======================================================================
* SPICE Model generated by Coilcraft
* Coilcraft Part Number : 0402CS-2N0
* Inductance = 2nH
*======================================================================
* Model Parameters:
*   Valid Frequency Range = 0.001GHz-18.1GHz
*   Ambient Temperature = 25 degC
*   Inductor Frequency Model
*   Use model for Frequency Domain simulations
*======================================================================
.subckt 0402CS-2N0_freq port1 port2 PARAMS: Cpar=0.047pF Ind=2nH
X1 port1 port2 Model2A PARAMS:
+ R1=12
+ R2=0.002
+ C= {Cpar}
+ K1=0.0000087
+ K2=0
+ K3= {Ind}
+ K4=0
+ K5=0
+ L=0
+ Is=0
+ a=0
+ L_Z0=0
+ L_EL=0
+ L_F0=0E6
+ PkZ=3250.23583
.ends 0402CS-2N0_freq

*======================================================================
* SPICE Model generated by Coilcraft
* Coilcraft Part Number : 0402CS-2N2
* Inductance = 2.2nH
*======================================================================
* Model Parameters:
*   Valid Frequency Range = 0.001GHz-17.9GHz
*   Ambient Temperature = 25 degC
*   Inductor Frequency Model
*   Use model for Frequency Domain simulations
*======================================================================
.subckt 0402CS-2N2_freq port1 port2 PARAMS: Cpar=0.044pF Ind=2.2nH
X1 port1 port2 Model2A PARAMS:
+ R1=12
+ R2=0.002
+ C= {Cpar}
+ K1=0.0000074
+ K2=0
+ K3= {Ind}
+ K4=0
+ K5=0
+ L=0
+ Is=0
+ a=0
+ L_Z0=0
+ L_EL=0
+ L_F0=0E6
+ PkZ=3869.23104
.ends 0402CS-2N2_freq

*======================================================================
* SPICE Model generated by Coilcraft
* Coilcraft Part Number : 0402CS-2N4
* Inductance = 2.4nH
*======================================================================
* Model Parameters:
*   Valid Frequency Range = 0.001GHz-17.9GHz
*   Ambient Temperature = 25 degC
*   Inductor Frequency Model
*   Use model for Frequency Domain simulations
*======================================================================
.subckt 0402CS-2N4_freq port1 port2 PARAMS: Cpar=0.038pF Ind=2.4nH
X1 port1 port2 Model2A PARAMS:
+ R1=13
+ R2=0.003
+ C= {Cpar}
+ K1=0.0000128
+ K2=0
+ K3= {Ind}
+ K4=0
+ K5=0
+ L=0
+ Is=0
+ a=0
+ L_Z0=0
+ L_EL=0
+ L_F0=0E6
+ PkZ=4316.26547
.ends 0402CS-2N4_freq

*======================================================================
* SPICE Model generated by Coilcraft
* Coilcraft Part Number : 0402CS-2N7
* Inductance = 2.6nH
*======================================================================
* Model Parameters:
*   Valid Frequency Range = 0.001GHz-17.9GHz
*   Ambient Temperature = 25 degC
*   Inductor Frequency Model
*   Use model for Frequency Domain simulations
*======================================================================
.subckt 0402CS-2N7_freq port1 port2 PARAMS: Cpar=0.036pF Ind=2.6nH
X1 port1 port2 Model2A PARAMS:
+ R1=13
+ R2=0.003
+ C= {Cpar}
+ K1=0.0000138
+ K2=0
+ K3= {Ind}
+ K4=0
+ K5=0
+ L=0
+ Is=0
+ a=0
+ L_Z0=0
+ L_EL=0
+ L_F0=0E6
+ PkZ=4895.62264
.ends 0402CS-2N7_freq

*======================================================================
* SPICE Model generated by Coilcraft
* Coilcraft Part Number : 0402CS-3N3
* Inductance = 3.3nH
*======================================================================
* Model Parameters:
*   Valid Frequency Range = 0.001GHz-14.8GHz
*   Ambient Temperature = 25 degC
*   Inductor Frequency Model
*   Use model for Frequency Domain simulations
*======================================================================
.subckt 0402CS-3N3_freq port1 port2 PARAMS: Cpar=0.043pF Ind=3.3nH
X1 port1 port2 Model2A PARAMS:
+ R1=14
+ R2=0.003
+ C= {Cpar}
+ K1=0.0000121
+ K2=0
+ K3= {Ind}
+ K4=0
+ K5=0
+ L=0
+ Is=0
+ a=0
+ L_Z0=0
+ L_EL=0
+ L_F0=0E6
+ PkZ=4990.26192
.ends 0402CS-3N3_freq

*======================================================================
* SPICE Model generated by Coilcraft
* Coilcraft Part Number : 0402CS-3N6
* Inductance = 3.6nH
*======================================================================
* Model Parameters:
*   Valid Frequency Range = 0.001GHz-14.7GHz
*   Ambient Temperature = 25 degC
*   Inductor Frequency Model
*   Use model for Frequency Domain simulations
*======================================================================
.subckt 0402CS-3N6_freq port1 port2 PARAMS: Cpar=0.04pF Ind=3.6nH
X1 port1 port2 Model2A PARAMS:
+ R1=26
+ R2=0.003
+ C= {Cpar}
+ K1=0.0000128
+ K2=0
+ K3= {Ind}
+ K4=0
+ K5=0
+ L=0
+ Is=0
+ a=0
+ L_Z0=0
+ L_EL=0
+ L_F0=0E6
+ PkZ=3288.13364
.ends 0402CS-3N6_freq

*======================================================================
* SPICE Model generated by Coilcraft
* Coilcraft Part Number : 0402CS-3N9
* Inductance = 3.9nH
*======================================================================
* Model Parameters:
*   Valid Frequency Range = 0.001GHz-14.7GHz
*   Ambient Temperature = 25 degC
*   Inductor Frequency Model
*   Use model for Frequency Domain simulations
*======================================================================
.subckt 0402CS-3N9_freq port1 port2 PARAMS: Cpar=0.037pF Ind=3.9nH
X1 port1 port2 Model2A PARAMS:
+ R1=26
+ R2=0.004
+ C= {Cpar}
+ K1=0.0000179
+ K2=0
+ K3= {Ind}
+ K4=0
+ K5=0
+ L=0
+ Is=0
+ a=0
+ L_Z0=0
+ L_EL=0
+ L_F0=0E6
+ PkZ=3768.48498
.ends 0402CS-3N9_freq

*======================================================================
* SPICE Model generated by Coilcraft
* Coilcraft Part Number : 0402CS-4N3
* Inductance = 4.3nH
*======================================================================
* Model Parameters:
*   Valid Frequency Range = 0.001GHz-14.7GHz
*   Ambient Temperature = 25 degC
*   Inductor Frequency Model
*   Use model for Frequency Domain simulations
*======================================================================
.subckt 0402CS-4N3_freq port1 port2 PARAMS: Cpar=0.032pF Ind=4.3nH
X1 port1 port2 Model2A PARAMS:
+ R1=25
+ R2=0.004
+ C= {Cpar}
+ K1=0.0000176
+ K2=0
+ K3= {Ind}
+ K4=0
+ K5=0
+ L=0
+ Is=0
+ a=0
+ L_Z0=0
+ L_EL=0
+ L_F0=0E6
+ PkZ=4979.26121
.ends 0402CS-4N3_freq

*======================================================================
* SPICE Model generated by Coilcraft
* Coilcraft Part Number : 0402CS-4N7
* Inductance = 4.7nH
*======================================================================
* Model Parameters:
*   Valid Frequency Range = 0.001GHz-14.4GHz
*   Ambient Temperature = 25 degC
*   Inductor Frequency Model
*   Use model for Frequency Domain simulations
*======================================================================
.subckt 0402CS-4N7_freq port1 port2 PARAMS: Cpar=0.032pF Ind=4.7nH
X1 port1 port2 Model2A PARAMS:
+ R1=25
+ R2=0.004
+ C= {Cpar}
+ K1=0.0000245
+ K2=0
+ K3= {Ind}
+ K4=0
+ K5=0
+ L=0
+ Is=0
+ a=0
+ L_Z0=0
+ L_EL=0
+ L_F0=0E6
+ PkZ=5296.35614
.ends 0402CS-4N7_freq

*======================================================================
* SPICE Model generated by Coilcraft
* Coilcraft Part Number : 0402CS-5N1
* Inductance = 5.1nH
*======================================================================
* Model Parameters:
*   Valid Frequency Range = 0.001GHz-13.2GHz
*   Ambient Temperature = 25 degC
*   Inductor Frequency Model
*   Use model for Frequency Domain simulations
*======================================================================
.subckt 0402CS-5N1_freq port1 port2 PARAMS: Cpar=0.035pF Ind=5.1nH
X1 port1 port2 Model2A PARAMS:
+ R1=24
+ R2=0.004
+ C= {Cpar}
+ K1=0.0000181
+ K2=0
+ K3= {Ind}
+ K4=0
+ K5=0
+ L=0
+ Is=0
+ a=0
+ L_Z0=0
+ L_EL=0
+ L_F0=0E6
+ PkZ=5620.8353
.ends 0402CS-5N1_freq

*======================================================================
* SPICE Model generated by Coilcraft
* Coilcraft Part Number : 0402CS-5N6
* Inductance = 5.6nH
*======================================================================
* Model Parameters:
*   Valid Frequency Range = 0.001GHz-11.9GHz
*   Ambient Temperature = 25 degC
*   Inductor Frequency Model
*   Use model for Frequency Domain simulations
*======================================================================
.subckt 0402CS-5N6_freq port1 port2 PARAMS: Cpar=0.039pF Ind=5.6nH
X1 port1 port2 Model2A PARAMS:
+ R1=20
+ R2=0.004
+ C= {Cpar}
+ K1=0.0000185
+ K2=0
+ K3= {Ind}
+ K4=0
+ K5=0
+ L=0
+ Is=0
+ a=0
+ L_Z0=0
+ L_EL=0
+ L_F0=0E6
+ PkZ=6559.87599
.ends 0402CS-5N6_freq

*======================================================================
* SPICE Model generated by Coilcraft
* Coilcraft Part Number : 0402CS-6N2
* Inductance = 6.2nH
*======================================================================
* Model Parameters:
*   Valid Frequency Range = 0.001GHz-11GHz
*   Ambient Temperature = 25 degC
*   Inductor Frequency Model
*   Use model for Frequency Domain simulations
*======================================================================
.subckt 0402CS-6N2_freq port1 port2 PARAMS: Cpar=0.041pF Ind=6.2nH
X1 port1 port2 Model2A PARAMS:
+ R1=18
+ R2=0.005
+ C= {Cpar}
+ K1=0.0000223
+ K2=0
+ K3= {Ind}
+ K4=0
+ K5=0
+ L=0
+ Is=0
+ a=0
+ L_Z0=0
+ L_EL=0
+ L_F0=0E6
+ PkZ=7483.87311
.ends 0402CS-6N2_freq

*======================================================================
* SPICE Model generated by Coilcraft
* Coilcraft Part Number : 0402CS-6N8
* Inductance = 6.7nH
*======================================================================
* Model Parameters:
*   Valid Frequency Range = 0.001GHz-10.7GHz
*   Ambient Temperature = 25 degC
*   Inductor Frequency Model
*   Use model for Frequency Domain simulations
*======================================================================
.subckt 0402CS-6N8_freq port1 port2 PARAMS: Cpar=0.048pF Ind=6.7nH
X1 port1 port2 Model2A PARAMS:
+ R1=18
+ R2=0.005
+ C= {Cpar}
+ K1=0.0000281
+ K2=0
+ K3= {Ind}
+ K4=0
+ K5=0
+ L=0
+ Is=0
+ a=0
+ L_Z0=0
+ L_EL=0
+ L_F0=0E6
+ PkZ=6768.41527
.ends 0402CS-6N8_freq

*======================================================================
* SPICE Model generated by Coilcraft
* Coilcraft Part Number : 0402CS-7N5
* Inductance = 7.5nH
*======================================================================
* Model Parameters:
*   Valid Frequency Range = 0.001GHz-10.7GHz
*   Ambient Temperature = 25 degC
*   Inductor Frequency Model
*   Use model for Frequency Domain simulations
*======================================================================
.subckt 0402CS-7N5_freq port1 port2 PARAMS: Cpar=0.036pF Ind=7.5nH
X1 port1 port2 Model2A PARAMS:
+ R1=18
+ R2=0.005
+ C= {Cpar}
+ K1=0.0000268
+ K2=0
+ K3= {Ind}
+ K4=0
+ K5=0
+ L=0
+ Is=0
+ a=0
+ L_Z0=0
+ L_EL=0
+ L_F0=0E6
+ PkZ=10102.8783
.ends 0402CS-7N5_freq

*======================================================================
* SPICE Model generated by Coilcraft
* Coilcraft Part Number : 0402CS-8N2
* Inductance = 8.2nH
*======================================================================
* Model Parameters:
*   Valid Frequency Range = 0.001GHz-9.4GHz
*   Ambient Temperature = 25 degC
*   Inductor Frequency Model
*   Use model for Frequency Domain simulations
*======================================================================
.subckt 0402CS-8N2_freq port1 port2 PARAMS: Cpar=0.043pF Ind=8.2nH
X1 port1 port2 Model2A PARAMS:
+ R1=16
+ R2=0.005
+ C= {Cpar}
+ K1=0.0000312
+ K2=0
+ K3= {Ind}
+ K4=0
+ K5=0
+ L=0
+ Is=0
+ a=0
+ L_Z0=0
+ L_EL=0
+ L_F0=0E6
+ PkZ=10111.5866
.ends 0402CS-8N2_freq

*======================================================================
* SPICE Model generated by Coilcraft
* Coilcraft Part Number : 0402CS-8N7
* Inductance = 8.7nH
*======================================================================
* Model Parameters:
*   Valid Frequency Range = 0.001GHz-9.9GHz
*   Ambient Temperature = 25 degC
*   Inductor Frequency Model
*   Use model for Frequency Domain simulations
*======================================================================
.subckt 0402CS-8N7_freq port1 port2 PARAMS: Cpar=0.032pF Ind=8.7nH
X1 port1 port2 Model2A PARAMS:
+ R1=20
+ R2=0.005
+ C= {Cpar}
+ K1=0.000039
+ K2=0
+ K3= {Ind}
+ K4=0
+ K5=0
+ L=0
+ Is=0
+ a=0
+ L_Z0=0
+ L_EL=0
+ L_F0=0E6
+ PkZ=11427.7233
.ends 0402CS-8N7_freq

*======================================================================
* SPICE Model generated by Coilcraft
* Coilcraft Part Number : 0402CS-9N0
* Inductance = 9nH
*======================================================================
* Model Parameters:
*   Valid Frequency Range = 0.001GHz-8.7GHz
*   Ambient Temperature = 25 degC
*   Inductor Frequency Model
*   Use model for Frequency Domain simulations
*======================================================================
.subckt 0402CS-9N0_freq port1 port2 PARAMS: Cpar=0.046pF Ind=9nH
X1 port1 port2 Model2A PARAMS:
+ R1=25
+ R2=0.006
+ C= {Cpar}
+ K1=0.0000296
+ K2=0
+ K3= {Ind}
+ K4=0
+ K5=0
+ L=0
+ Is=0
+ a=0
+ L_Z0=0
+ L_EL=0
+ L_F0=0E6
+ PkZ=7095.69081
.ends 0402CS-9N0_freq

*======================================================================
* SPICE Model generated by Coilcraft
* Coilcraft Part Number : 0402CS-9N5
* Inductance = 9.5nH
*======================================================================
* Model Parameters:
*   Valid Frequency Range = 0.001GHz-8.6GHz
*   Ambient Temperature = 25 degC
*   Inductor Frequency Model
*   Use model for Frequency Domain simulations
*======================================================================
.subckt 0402CS-9N5_freq port1 port2 PARAMS: Cpar=0.044pF Ind=9.5nH
X1 port1 port2 Model2A PARAMS:
+ R1=20
+ R2=0.006
+ C= {Cpar}
+ K1=0.0000426
+ K2=0
+ K3= {Ind}
+ K4=0
+ K5=0
+ L=0
+ Is=0
+ a=0
+ L_Z0=0
+ L_EL=0
+ L_F0=0E6
+ PkZ=9096.33772
.ends 0402CS-9N5_freq

*======================================================================
* SPICE Model generated by Coilcraft
* Coilcraft Part Number : 0402CS-10N
* Inductance = 10nH
*======================================================================
* Model Parameters:
*   Valid Frequency Range = 0.001GHz-8.3GHz
*   Ambient Temperature = 25 degC
*   Inductor Frequency Model
*   Use model for Frequency Domain simulations
*======================================================================
.subckt 0402CS-10N_freq port1 port2 PARAMS: Cpar=0.046pF Ind=10nH
X1 port1 port2 Model2A PARAMS:
+ R1=30
+ R2=0.006
+ C= {Cpar}
+ K1=0.0000388
+ K2=0
+ K3= {Ind}
+ K4=0
+ K5=0
+ L=0
+ Is=0
+ a=0
+ L_Z0=0
+ L_EL=0
+ L_F0=0E6
+ PkZ=6533.63109
.ends 0402CS-10N_freq

*======================================================================
* SPICE Model generated by Coilcraft
* Coilcraft Part Number : 0402CS-11N
* Inductance = 11nH
*======================================================================
* Model Parameters:
*   Valid Frequency Range = 0.001GHz-8.6GHz
*   Ambient Temperature = 25 degC
*   Inductor Frequency Model
*   Use model for Frequency Domain simulations
*======================================================================
.subckt 0402CS-11N_freq port1 port2 PARAMS: Cpar=0.038pF Ind=11nH
X1 port1 port2 Model2A PARAMS:
+ R1=20
+ R2=0.008
+ C= {Cpar}
+ K1=0.0000363
+ K2=0
+ K3= {Ind}
+ K4=0
+ K5=0
+ L=0
+ Is=0
+ a=0
+ L_Z0=0
+ L_EL=0
+ L_F0=0E6
+ PkZ=12484.6825
.ends 0402CS-11N_freq

*======================================================================
* SPICE Model generated by Coilcraft
* Coilcraft Part Number : 0402CS-12N
* Inductance = 12nH
*======================================================================
* Model Parameters:
*   Valid Frequency Range = 0.001GHz-7.2GHz
*   Ambient Temperature = 25 degC
*   Inductor Frequency Model
*   Use model for Frequency Domain simulations
*======================================================================
.subckt 0402CS-12N_freq port1 port2 PARAMS: Cpar=0.05pF Ind=12nH
X1 port1 port2 Model2A PARAMS:
+ R1=10
+ R2=0.008
+ C= {Cpar}
+ K1=0.0000393
+ K2=0
+ K3= {Ind}
+ K4=0
+ K5=0
+ L=0
+ Is=0
+ a=0
+ L_Z0=0
+ L_EL=0
+ L_F0=0E6
+ PkZ=18230.3936
.ends 0402CS-12N_freq

*======================================================================
* SPICE Model generated by Coilcraft
* Coilcraft Part Number : 0402CS-13N
* Inductance = 13nH
*======================================================================
* Model Parameters:
*   Valid Frequency Range = 0.001GHz-7.2GHz
*   Ambient Temperature = 25 degC
*   Inductor Frequency Model
*   Use model for Frequency Domain simulations
*======================================================================
.subckt 0402CS-13N_freq port1 port2 PARAMS: Cpar=0.046pF Ind=13nH
X1 port1 port2 Model2A PARAMS:
+ R1=20
+ R2=0.009
+ C= {Cpar}
+ K1=0.0000438
+ K2=0
+ K3= {Ind}
+ K4=0
+ K5=0
+ L=0
+ Is=0
+ a=0
+ L_Z0=0
+ L_EL=0
+ L_F0=0E6
+ PkZ=12017.5371
.ends 0402CS-13N_freq

*======================================================================
* SPICE Model generated by Coilcraft
* Coilcraft Part Number : 0402CS-15N
* Inductance = 15nH
*======================================================================
* Model Parameters:
*   Valid Frequency Range = 0.001GHz-7.3GHz
*   Ambient Temperature = 25 degC
*   Inductor Frequency Model
*   Use model for Frequency Domain simulations
*======================================================================
.subckt 0402CS-15N_freq port1 port2 PARAMS: Cpar=0.039pF Ind=15nH
X1 port1 port2 Model2A PARAMS:
+ R1=40
+ R2=0.01
+ C= {Cpar}
+ K1=0.0000473
+ K2=0
+ K3= {Ind}
+ K4=0
+ K5=0
+ L=0
+ Is=0
+ a=0
+ L_Z0=0
+ L_EL=0
+ L_F0=0E6
+ PkZ=8792.18713
.ends 0402CS-15N_freq

*======================================================================
* SPICE Model generated by Coilcraft
* Coilcraft Part Number : 0402CS-16N
* Inductance = 16nH
*======================================================================
* Model Parameters:
*   Valid Frequency Range = 0.001GHz-7.3GHz
*   Ambient Temperature = 25 degC
*   Inductor Frequency Model
*   Use model for Frequency Domain simulations
*======================================================================
.subckt 0402CS-16N_freq port1 port2 PARAMS: Cpar=0.049pF Ind=16nH
X1 port1 port2 Model2A PARAMS:
+ R1=15
+ R2=0.01
+ C= {Cpar}
+ K1=0.000055
+ K2=0
+ K3= {Ind}
+ K4=0
+ K5=0
+ L=0
+ Is=0
+ a=0
+ L_Z0=0
+ L_EL=0
+ L_F0=0E6
+ PkZ=17060.5548
.ends 0402CS-16N_freq

*======================================================================
* SPICE Model generated by Coilcraft
* Coilcraft Part Number : 0402CS-18N
* Inductance = 18nH
*======================================================================
* Model Parameters:
*   Valid Frequency Range = 0.001GHz-7.3GHz
*   Ambient Temperature = 25 degC
*   Inductor Frequency Model
*   Use model for Frequency Domain simulations
*======================================================================
.subckt 0402CS-18N_freq port1 port2 PARAMS: Cpar=0.031pF Ind=18nH
X1 port1 port2 Model2A PARAMS:
+ R1=26
+ R2=0.01
+ C= {Cpar}
+ K1=0.0000631
+ K2=0
+ K3= {Ind}
+ K4=0
+ K5=0
+ L=0
+ Is=0
+ a=0
+ L_Z0=0
+ L_EL=0
+ L_F0=0E6
+ PkZ=18633.9849
.ends 0402CS-18N_freq

*======================================================================
* SPICE Model generated by Coilcraft
* Coilcraft Part Number : 0402CS-19N
* Inductance = 19nH
*======================================================================
* Model Parameters:
*   Valid Frequency Range = 0.001GHz-6.7GHz
*   Ambient Temperature = 25 degC
*   Inductor Frequency Model
*   Use model for Frequency Domain simulations
*======================================================================
.subckt 0402CS-19N_freq port1 port2 PARAMS: Cpar=0.036pF Ind=19nH
X1 port1 port2 Model2A PARAMS:
+ R1=14
+ R2=0.01
+ C= {Cpar}
+ K1=0.0000571
+ K2=0
+ K3= {Ind}
+ K4=0
+ K5=0
+ L=0
+ Is=0
+ a=0
+ L_Z0=0
+ L_EL=0
+ L_F0=0E6
+ PkZ=28604.9903
.ends 0402CS-19N_freq

*======================================================================
* SPICE Model generated by Coilcraft
* Coilcraft Part Number : 0402CS-20N
* Inductance = 20nH
*======================================================================
* Model Parameters:
*   Valid Frequency Range = 0.001GHz-6.7GHz
*   Ambient Temperature = 25 degC
*   Inductor Frequency Model
*   Use model for Frequency Domain simulations
*======================================================================
.subckt 0402CS-20N_freq port1 port2 PARAMS: Cpar=0.043pF Ind=20nH
X1 port1 port2 Model2A PARAMS:
+ R1=18
+ R2=0.01
+ C= {Cpar}
+ K1=0.0000701
+ K2=0
+ K3= {Ind}
+ K4=0
+ K5=0
+ L=0
+ Is=0
+ a=0
+ L_Z0=0
+ L_EL=0
+ L_F0=0E6
+ PkZ=20086.6731
.ends 0402CS-20N_freq

*======================================================================
* SPICE Model generated by Coilcraft
* Coilcraft Part Number : 0402CS-22N
* Inductance = 22nH
*======================================================================
* Model Parameters:
*   Valid Frequency Range = 0.001GHz-6.7GHz
*   Ambient Temperature = 25 degC
*   Inductor Frequency Model
*   Use model for Frequency Domain simulations
*======================================================================
.subckt 0402CS-22N_freq port1 port2 PARAMS: Cpar=0.034pF Ind=22nH
X1 port1 port2 Model2A PARAMS:
+ R1=21
+ R2=0.011
+ C= {Cpar}
+ K1=0.0000781
+ K2=0
+ K3= {Ind}
+ K4=0
+ K5=0
+ L=0
+ Is=0
+ a=0
+ L_Z0=0
+ L_EL=0
+ L_F0=0E6
+ PkZ=24011.5066
.ends 0402CS-22N_freq

*======================================================================
* SPICE Model generated by Coilcraft
* Coilcraft Part Number : 0402CS-23N
* Inductance = 23nH
*======================================================================
* Model Parameters:
*   Valid Frequency Range = 0.001GHz-6.7GHz
*   Ambient Temperature = 25 degC
*   Inductor Frequency Model
*   Use model for Frequency Domain simulations
*======================================================================
.subckt 0402CS-23N_freq port1 port2 PARAMS: Cpar=0.036pF Ind=23nH
X1 port1 port2 Model2A PARAMS:
+ R1=20
+ R2=0.012
+ C= {Cpar}
+ K1=0.0000747
+ K2=0
+ K3= {Ind}
+ K4=0
+ K5=0
+ L=0
+ Is=0
+ a=0
+ L_Z0=0
+ L_EL=0
+ L_F0=0E6
+ PkZ=25008.4955
.ends 0402CS-23N_freq

*======================================================================
* SPICE Model generated by Coilcraft
* Coilcraft Part Number : 0402CS-24N
* Inductance = 24nH
*======================================================================
* Model Parameters:
*   Valid Frequency Range = 0.001GHz-6.2GHz
*   Ambient Temperature = 25 degC
*   Inductor Frequency Model
*   Use model for Frequency Domain simulations
*======================================================================
.subckt 0402CS-24N_freq port1 port2 PARAMS: Cpar=0.045pF Ind=24nH
X1 port1 port2 Model2A PARAMS:
+ R1=20
+ R2=0.012
+ C= {Cpar}
+ K1=0.0000851
+ K2=0
+ K3= {Ind}
+ K4=0
+ K5=0
+ L=0
+ Is=0
+ a=0
+ L_Z0=0
+ L_EL=0
+ L_F0=0E6
+ PkZ=20582.781
.ends 0402CS-24N_freq

*======================================================================
* SPICE Model generated by Coilcraft
* Coilcraft Part Number : 0402CS-27N
* Inductance = 27nH
*======================================================================
* Model Parameters:
*   Valid Frequency Range = 0.001GHz-6.2GHz
*   Ambient Temperature = 25 degC
*   Inductor Frequency Model
*   Use model for Frequency Domain simulations
*======================================================================
.subckt 0402CS-27N_freq port1 port2 PARAMS: Cpar=0.036pF Ind=27nH
X1 port1 port2 Model2A PARAMS:
+ R1=22
+ R2=0.012
+ C= {Cpar}
+ K1=0.0000875
+ K2=0
+ K3= {Ind}
+ K4=0
+ K5=0
+ L=0
+ Is=0
+ a=0
+ L_Z0=0
+ L_EL=0
+ L_F0=0E6
+ PkZ=26556.2964
.ends 0402CS-27N_freq

*======================================================================
* SPICE Model generated by Coilcraft
* Coilcraft Part Number : 0402CS-30N
* Inductance = 30nH
*======================================================================
* Model Parameters:
*   Valid Frequency Range = 0.001GHz-5.3GHz
*   Ambient Temperature = 25 degC
*   Inductor Frequency Model
*   Use model for Frequency Domain simulations
*======================================================================
.subckt 0402CS-30N_freq port1 port2 PARAMS: Cpar=0.044pF Ind=30nH
X1 port1 port2 Model2A PARAMS:
+ R1=26
+ R2=0.013
+ C= {Cpar}
+ K1=0.000102
+ K2=0
+ K3= {Ind}
+ K4=0
+ K5=0
+ L=0
+ Is=0
+ a=0
+ L_Z0=0
+ L_EL=0
+ L_F0=0E6
+ PkZ=20829.2799
.ends 0402CS-30N_freq

*======================================================================
* SPICE Model generated by Coilcraft
* Coilcraft Part Number : 0402CS-33N
* Inductance = 33nH
*======================================================================
* Model Parameters:
*   Valid Frequency Range = 0.001GHz-5GHz
*   Ambient Temperature = 25 degC
*   Inductor Frequency Model
*   Use model for Frequency Domain simulations
*======================================================================
.subckt 0402CS-33N_freq port1 port2 PARAMS: Cpar=0.045pF Ind=33nH
X1 port1 port2 Model2A PARAMS:
+ R1=29
+ R2=0.013
+ C= {Cpar}
+ K1=0.000116
+ K2=0
+ K3= {Ind}
+ K4=0
+ K5=0
+ L=0
+ Is=0
+ a=0
+ L_Z0=0
+ L_EL=0
+ L_F0=0E6
+ PkZ=20128.5378
.ends 0402CS-33N_freq

*======================================================================
* SPICE Model generated by Coilcraft
* Coilcraft Part Number : 0402CS-36N
* Inductance = 36nH
*======================================================================
* Model Parameters:
*   Valid Frequency Range = 0.001GHz-5GHz
*   Ambient Temperature = 25 degC
*   Inductor Frequency Model
*   Use model for Frequency Domain simulations
*======================================================================
.subckt 0402CS-36N_freq port1 port2 PARAMS: Cpar=0.041pF Ind=36nH
X1 port1 port2 Model2A PARAMS:
+ R1=28
+ R2=0.014
+ C= {Cpar}
+ K1=0.000128
+ K2=0
+ K3= {Ind}
+ K4=0
+ K5=0
+ L=0
+ Is=0
+ a=0
+ L_Z0=0
+ L_EL=0
+ L_F0=0E6
+ PkZ=24241.4833
.ends 0402CS-36N_freq

*======================================================================
* SPICE Model generated by Coilcraft
* Coilcraft Part Number : 0402CS-39N
* Inductance = 39nH
*======================================================================
* Model Parameters:
*   Valid Frequency Range = 0.001GHz-5.2GHz
*   Ambient Temperature = 25 degC
*   Inductor Frequency Model