*======================================================================
* SPICE Model generated by Coilcraft
* Coilcraft Part Number : 0402DF-200
* Inductance = 0.0218uH
*======================================================================
* Model Parameters:
*   Valid Frequency Range = 0.001GHz-3GHz
*   Ambient Temperature = 25 degC
*   Inductor Frequency Model
*   Use model for Frequency Domain simulations
*======================================================================
.subckt 0402DF-200_freq port1 port2 PARAMS: Cpar=10pF Ind=0.0218uH
X1 port1 port2 Model1A PARAMS:
+ R1=285
+ R2=0.049
+ C= {Cpar}
+ K1=0.0000213
+ K2=0.093
+ K3= {Ind}
+ K4=0.000648
+ K5=0.00000156
+ L=0
+ Is=0
+ a=0
+ L_Z0=0
+ L_EL=0
+ L_F0=0E6
+ PkZ=42.1917237
.ends 0402DF-200_freq

*======================================================================
* SPICE Model generated by Coilcraft
* Coilcraft Part Number : 0402DF-200
* Inductance = 0.0218uH
*======================================================================
* Model Parameters:
*   Valid Frequency Range = 0.001GHz-3GHz
*   Ambient Temperature = 25 degC
*   Inductor Impedance Model
*   Use model for Time Domain simulations
*======================================================================
.subckt 0402DF-200_imp port1 port2 PARAMS: Cpar=8.13pF Ind=0.0218uH
X1 port1 port2 Model1D PARAMS:
+ R1=285
+ R2=0.049
+ C= {Cpar}
+ K1=0.0000213
+ K2=0.093
+ K3= {Ind}
+ K4=0.000648
+ K5=0.00000156
+ L=0
+ Is=0
+ a=0
+ L_Z0=0
+ L_EL=0
+ L_F0=0E6
+ PkZ=42.1917237
.ends 0402DF-200_imp

*======================================================================
* SPICE Model generated by Coilcraft
* Coilcraft Part Number : 0402DF-360
* Inductance = 0.039uH
*======================================================================
* Model Parameters:
*   Valid Frequency Range = 0.001GHz-3GHz
*   Ambient Temperature = 25 degC
*   Inductor Frequency Model
*   Use model for Frequency Domain simulations
*======================================================================
.subckt 0402DF-360_freq port1 port2 PARAMS: Cpar=2.9pF Ind=0.039uH
X1 port1 port2 Model1A PARAMS:
+ R1=506
+ R2=0.055
+ C= {Cpar}
+ K1=0.000126
+ K2=0.063
+ K3= {Ind}
+ K4=0.0009
+ K5=0.00000156
+ L=0
+ Is=0
+ a=0
+ L_Z0=0
+ L_EL=0
+ L_F0=0E6
+ PkZ=106.162333
.ends 0402DF-360_freq

*======================================================================
* SPICE Model generated by Coilcraft
* Coilcraft Part Number : 0402DF-360
* Inductance = 0.039uH
*======================================================================
* Model Parameters:
*   Valid Frequency Range = 0.001GHz-3GHz
*   Ambient Temperature = 25 degC
*   Inductor Impedance Model
*   Use model for Time Domain simulations
*======================================================================
.subckt 0402DF-360_imp port1 port2 PARAMS: Cpar=2.46pF Ind=0.039uH
X1 port1 port2 Model1D PARAMS:
+ R1=506
+ R2=0.055
+ C= {Cpar}
+ K1=0.000126
+ K2=0.063
+ K3= {Ind}
+ K4=0.0009
+ K5=0.00000156
+ L=0
+ Is=0
+ a=0
+ L_Z0=0
+ L_EL=0
+ L_F0=0E6
+ PkZ=106.162333
.ends 0402DF-360_imp

*======================================================================
* SPICE Model generated by Coilcraft
* Coilcraft Part Number : 0402DF-560
* Inductance = 0.06uH
*======================================================================
* Model Parameters:
*   Valid Frequency Range = 0.001GHz-3GHz
*   Ambient Temperature = 25 degC
*   Inductor Frequency Model
*   Use model for Frequency Domain simulations
*======================================================================
.subckt 0402DF-560_freq port1 port2 PARAMS: Cpar=0.069pF Ind=0.06uH
X1 port1 port2 Model1A PARAMS:
+ R1=530
+ R2=0.061
+ C= {Cpar}
+ K1=0.00000227
+ K2=0.017
+ K3= {Ind}
+ K4=0.00115
+ K5=0.00000774
+ L=0
+ Is=0
+ a=0
+ L_Z0=0
+ L_EL=0
+ L_F0=0E6
+ PkZ=590.058671
.ends 0402DF-560_freq

*======================================================================
* SPICE Model generated by Coilcraft
* Coilcraft Part Number : 0402DF-560
* Inductance = 0.06uH
*======================================================================
* Model Parameters:
*   Valid Frequency Range = 0.001GHz-3GHz
*   Ambient Temperature = 25 degC
*   Inductor Impedance Model
*   Use model for Time Domain simulations
*======================================================================
.subckt 0402DF-560_imp port1 port2 PARAMS: Cpar=0.06pF Ind=0.06uH
X1 port1 port2 Model1D PARAMS:
+ R1=530
+ R2=0.061
+ C= {Cpar}
+ K1=0.00000227
+ K2=0.017
+ K3= {Ind}
+ K4=0.00115
+ K5=0.00000774
+ L=0
+ Is=0
+ a=0
+ L_Z0=0
+ L_EL=0
+ L_F0=0E6
+ PkZ=590.058671
.ends 0402DF-560_imp

*======================================================================
* SPICE Model generated by Coilcraft
* Coilcraft Part Number : 0402DF-770
* Inductance = 0.09uH
*======================================================================
* Model Parameters:
*   Valid Frequency Range = 0.001GHz-3GHz
*   Ambient Temperature = 25 degC
*   Inductor Frequency Model
*   Use model for Frequency Domain simulations
*======================================================================
.subckt 0402DF-770_freq port1 port2 PARAMS: Cpar=0.08pF Ind=0.09uH
X1 port1 port2 Model1A PARAMS:
+ R1=432
+ R2=0.072
+ C= {Cpar}
+ K1=0.00000227
+ K2=0.025
+ K3= {Ind}
+ K4=0.00291
+ K5=0.0000114
+ L=0
+ Is=0
+ a=0
+ L_Z0=0
+ L_EL=0
+ L_F0=0E6
+ PkZ=760.695822
.ends 0402DF-770_freq

*======================================================================
* SPICE Model generated by Coilcraft
* Coilcraft Part Number : 0402DF-770
* Inductance = 0.09uH
*======================================================================
* Model Parameters:
*   Valid Frequency Range = 0.001GHz-3GHz
*   Ambient Temperature = 25 degC
*   Inductor Impedance Model
*   Use model for Time Domain simulations
*======================================================================
.subckt 0402DF-770_imp port1 port2 PARAMS: Cpar=0.05pF Ind=0.09uH
X1 port1 port2 Model1D PARAMS:
+ R1=432
+ R2=0.072
+ C= {Cpar}
+ K1=0.00000227
+ K2=0.025
+ K3= {Ind}
+ K4=0.00291
+ K5=0.0000114
+ L=0
+ Is=0
+ a=0
+ L_Z0=0
+ L_EL=0
+ L_F0=0E6
+ PkZ=760.695822
.ends 0402DF-770_imp

*======================================================================
* SPICE Model generated by Coilcraft
* Coilcraft Part Number : 0402DF-900
* Inductance = 0.099uH
*======================================================================
* Model Parameters:
*   Valid Frequency Range = 0.001GHz-3GHz
*   Ambient Temperature = 25 degC
*   Inductor Frequency Model
*   Use model for Frequency Domain simulations
*======================================================================
.subckt 0402DF-900_freq port1 port2 PARAMS: Cpar=0.083pF Ind=0.099uH
X1 port1 port2 Model1A PARAMS:
+ R1=1670
+ R2=0.079
+ C= {Cpar}
+ K1=0.0000712
+ K2=0.037
+ K3= {Ind}
+ K4=0.00312
+ K5=0.00000156
+ L=0
+ Is=0
+ a=0
+ L_Z0=0
+ L_EL=0
+ L_F0=0E6
+ PkZ=752.085292
.ends 0402DF-900_freq

*======================================================================
* SPICE Model generated by Coilcraft
* Coilcraft Part Number : 0402DF-900
* Inductance = 0.099uH
*======================================================================
* Model Parameters:
*   Valid Frequency Range = 0.001GHz-3GHz
*   Ambient Temperature = 25 degC
*   Inductor Impedance Model
*   Use model for Time Domain simulations
*======================================================================
.subckt 0402DF-900_imp port1 port2 PARAMS: Cpar=0.06pF Ind=0.099uH
X1 port1 port2 Model1D PARAMS:
+ R1=1670
+ R2=0.079
+ C= {Cpar}
+ K1=0.0000712
+ K2=0.037
+ K3= {Ind}
+ K4=0.00312
+ K5=0.00000156
+ L=0
+ Is=0
+ a=0
+ L_Z0=0
+ L_EL=0
+ L_F0=0E6
+ PkZ=752.085292
.ends 0402DF-900_imp

*======================================================================
* SPICE Model generated by Coilcraft
* Coilcraft Part Number : 0402DF-101
* Inductance = 0.106uH
*======================================================================
* Model Parameters:
*   Valid Frequency Range = 0.001GHz-3GHz
*   Ambient Temperature = 25 degC
*   Inductor Frequency Model
*   Use model for Frequency Domain simulations
*======================================================================
.subckt 0402DF-101_freq port1 port2 PARAMS: Cpar=0.052pF Ind=0.106uH
X1 port1 port2 Model1A PARAMS:
+ R1=1050
+ R2=0.104
+ C= {Cpar}
+ K1=0.000107
+ K2=0.047
+ K3= {Ind}
+ K4=0.00121
+ K5=0.00000156
+ L=0
+ Is=0
+ a=0
+ L_Z0=0
+ L_EL=0
+ L_F0=0E6
+ PkZ=1173.10351
.ends 0402DF-101_freq

*======================================================================
* SPICE Model generated by Coilcraft
* Coilcraft Part Number : 0402DF-101
* Inductance = 0.106uH
*======================================================================
* Model Parameters:
*   Valid Frequency Range = 0.001GHz-3GHz
*   Ambient Temperature = 25 degC
*   Inductor Impedance Model
*   Use model for Time Domain simulations
*======================================================================
.subckt 0402DF-101_imp port1 port2 PARAMS: Cpar=0.05pF Ind=0.106uH
X1 port1 port2 Model1D PARAMS:
+ R1=1050
+ R2=0.104
+ C= {Cpar}
+ K1=0.000107
+ K2=0.047
+ K3= {Ind}
+ K4=0.00121
+ K5=0.00000156
+ L=0
+ Is=0
+ a=0
+ L_Z0=0
+ L_EL=0
+ L_F0=0E6
+ PkZ=1173.10351
.ends 0402DF-101_imp

*======================================================================
* SPICE Model generated by Coilcraft
* Coilcraft Part Number : 0402DF-121
* Inductance = 0.135uH
*======================================================================
* Model Parameters:
*   Valid Frequency Range = 0.001GHz-3GHz
*   Ambient Temperature = 25 degC
*   Inductor Frequency Model
*   Use model for Frequency Domain simulations
*======================================================================
.subckt 0402DF-121_freq port1 port2 PARAMS: Cpar=0.048pF Ind=0.135uH
X1 port1 port2 Model1A PARAMS:
+ R1=278
+ R2=0.09
+ C= {Cpar}
+ K1=0.000103
+ K2=0.039
+ K3= {Ind}
+ K4=0.00179
+ K5=0.0000644
+ L=0
+ Is=0
+ a=0
+ L_Z0=0
+ L_EL=0
+ L_F0=0E6
+ PkZ=1495.96817
.ends 0402DF-121_freq

*======================================================================
* SPICE Model generated by Coilcraft
* Coilcraft Part Number : 0402DF-121
* Inductance = 0.135uH
*======================================================================
* Model Parameters:
*   Valid Frequency Range = 0.001GHz-3GHz
*   Ambient Temperature = 25 degC
*   Inductor Impedance Model
*   Use model for Time Domain simulations
*======================================================================
.subckt 0402DF-121_imp port1 port2 PARAMS: Cpar=0.04pF Ind=0.135uH
X1 port1 port2 Model1D PARAMS:
+ R1=278
+ R2=0.09
+ C= {Cpar}
+ K1=0.000103
+ K2=0.039
+ K3= {Ind}
+ K4=0.00179
+ K5=0.0000644
+ L=0
+ Is=0
+ a=0
+ L_Z0=0
+ L_EL=0
+ L_F0=0E6
+ PkZ=1495.96817
.ends 0402DF-121_imp

*======================================================================
* SPICE Model generated by Coilcraft
* Coilcraft Part Number : 0402DF-141
* Inductance = 0.16uH
*======================================================================
* Model Parameters:
*   Valid Frequency Range = 0.001GHz-3GHz
*   Ambient Temperature = 25 degC
*   Inductor Frequency Model
*   Use model for Frequency Domain simulations
*======================================================================
.subckt 0402DF-141_freq port1 port2 PARAMS: Cpar=0.067pF Ind=0.16uH
X1 port1 port2 Model1A PARAMS:
+ R1=520
+ R2=0.141
+ C= {Cpar}
+ K1=0.000116
+ K2=0.066
+ K3= {Ind}
+ K4=0.00357
+ K5=0.00000983
+ L=0
+ Is=0
+ a=0
+ L_Z0=0
+ L_EL=0
+ L_F0=0E6
+ PkZ=1623.44899
.ends 0402DF-141_freq

*======================================================================
* SPICE Model generated by Coilcraft
* Coilcraft Part Number : 0402DF-141
* Inductance = 0.16uH
*======================================================================
* Model Parameters:
*   Valid Frequency Range = 0.001GHz-3GHz
*   Ambient Temperature = 25 degC
*   Inductor Impedance Model
*   Use model for Time Domain simulations
*======================================================================
.subckt 0402DF-141_imp port1 port2 PARAMS: Cpar=0.05pF Ind=0.16uH
X1 port1 port2 Model1D PARAMS:
+ R1=520
+ R2=0.141
+ C= {Cpar}
+ K1=0.000116
+ K2=0.066
+ K3= {Ind}
+ K4=0.00357
+ K5=0.00000983
+ L=0
+ Is=0
+ a=0
+ L_Z0=0
+ L_EL=0
+ L_F0=0E6
+ PkZ=1623.44899
.ends 0402DF-141_imp

*======================================================================
* SPICE Model generated by Coilcraft
* Coilcraft Part Number : 0402DF-151
* Inductance = 0.171uH
*======================================================================
* Model Parameters:
*   Valid Frequency Range = 0.001GHz-3GHz
*   Ambient Temperature = 25 degC
*   Inductor Frequency Model
*   Use model for Frequency Domain simulations
*======================================================================
.subckt 0402DF-151_freq port1 port2 PARAMS: Cpar=0.049pF Ind=0.171uH
X1 port1 port2 Model1A PARAMS:
+ R1=840
+ R2=0.13
+ C= {Cpar}
+ K1=0.000202
+ K2=0.048
+ K3= {Ind}
+ K4=0.00476
+ K5=0.0000022
+ L=0
+ Is=0
+ a=0
+ L_Z0=0
+ L_EL=0
+ L_F0=0E6
+ PkZ=1368.96094
.ends 0402DF-151_freq

*======================================================================
* SPICE Model generated by Coilcraft
* Coilcraft Part Number : 0402DF-151
* Inductance = 0.171uH
*======================================================================
* Model Parameters:
*   Valid Frequency Range = 0.001GHz-3GHz
*   Ambient Temperature = 25 degC
*   Inductor Impedance Model
*   Use model for Time Domain simulations
*======================================================================
.subckt 0402DF-151_imp port1 port2 PARAMS: Cpar=0.04pF Ind=0.171uH
X1 port1 port2 Model1D PARAMS:
+ R1=840
+ R2=0.13
+ C= {Cpar}
+ K1=0.000202
+ K2=0.048
+ K3= {Ind}
+ K4=0.00476
+ K5=0.0000022
+ L=0
+ Is=0
+ a=0
+ L_Z0=0
+ L_EL=0
+ L_F0=0E6
+ PkZ=1368.96094
.ends 0402DF-151_imp

*======================================================================
* SPICE Model generated by Coilcraft
* Coilcraft Part Number : 0402DF-181
* Inductance = 0.213uH
*======================================================================
* Model Parameters:
*   Valid Frequency Range = 0.001GHz-3GHz
*   Ambient Temperature = 25 degC
*   Inductor Frequency Model
*   Use model for Frequency Domain simulations
*======================================================================
.subckt 0402DF-181_freq port1 port2 PARAMS: Cpar=0.04pF Ind=0.213uH
X1 port1 port2 Model1A PARAMS:
+ R1=1010
+ R2=0.172
+ C= {Cpar}
+ K1=0.0000313
+ K2=0.063
+ K3= {Ind}
+ K4=0.0077
+ K5=0.00000986
+ L=0
+ Is=0
+ a=0
+ L_Z0=0
+ L_EL=0
+ L_F0=0E6
+ PkZ=1712.88445
.ends 0402DF-181_freq

*======================================================================
* SPICE Model generated by Coilcraft
* Coilcraft Part Number : 0402DF-181
* Inductance = 0.213uH
*======================================================================
* Model Parameters:
*   Valid Frequency Range = 0.001GHz-3GHz
*   Ambient Temperature = 25 degC
*   Inductor Impedance Model
*   Use model for Time Domain simulations
*======================================================================
.subckt 0402DF-181_imp port1 port2 PARAMS: Cpar=0.03pF Ind=0.213uH
X1 port1 port2 Model1D PARAMS:
+ R1=1010
+ R2=0.172
+ C= {Cpar}
+ K1=0.0000313
+ K2=0.063
+ K3= {Ind}
+ K4=0.0077
+ K5=0.00000986
+ L=0
+ Is=0
+ a=0
+ L_Z0=0
+ L_EL=0
+ L_F0=0E6
+ PkZ=1712.88445
.ends 0402DF-181_imp

*======================================================================
* SPICE Model generated by Coilcraft
* Coilcraft Part Number : 0402DF-221
* Inductance = 0.265uH
*======================================================================
* Model Parameters:
*   Valid Frequency Range = 0.001GHz-3GHz
*   Ambient Temperature = 25 degC
*   Inductor Frequency Model
*   Use model for Frequency Domain simulations
*======================================================================
.subckt 0402DF-221_freq port1 port2 PARAMS: Cpar=0.041pF Ind=0.265uH
X1 port1 port2 Model1A PARAMS:
+ R1=846
+ R2=0.24
+ C= {Cpar}
+ K1=0.000193
+ K2=0.075
+ K3= {Ind}
+ K4=0.00914
+ K5=0.00000355
+ L=0
+ Is=0
+ a=0
+ L_Z0=0
+ L_EL=0
+ L_F0=0E6
+ PkZ=2083.90647
.ends 0402DF-221_freq

*======================================================================
* SPICE Model generated by Coilcraft
* Coilcraft Part Number : 0402DF-221
* Inductance = 0.265uH
*======================================================================
* Model Parameters:
*   Valid Frequency Range = 0.001GHz-3GHz
*   Ambient Temperature = 25 degC
*   Inductor Impedance Model
*   Use model for Time Domain simulations
*======================================================================
.subckt 0402DF-221_imp port1 port2 PARAMS: Cpar=0.03pF Ind=0.265uH
X1 port1 port2 Model1D PARAMS:
+ R1=846
+ R2=0.24
+ C= {Cpar}
+ K1=0.000193
+ K2=0.075
+ K3= {Ind}
+ K4=0.00914
+ K5=0.00000355
+ L=0
+ Is=0
+ a=0
+ L_Z0=0
+ L_EL=0
+ L_F0=0E6
+ PkZ=2083.90647
.ends 0402DF-221_imp

*======================================================================
* SPICE Model generated by Coilcraft
* Coilcraft Part Number : 0402DF-271
* Inductance = 0.278uH
*======================================================================
* Model Parameters:
*   Valid Frequency Range = 0.001GHz-3GHz
*   Ambient Temperature = 25 degC
*   Inductor Frequency Model
*   Use model for Frequency Domain simulations
*======================================================================
.subckt 0402DF-271_freq port1 port2 PARAMS: Cpar=0.028pF Ind=0.278uH
X1 port1 port2 Model1A PARAMS:
+ R1=773
+ R2=0.265
+ C= {Cpar}
+ K1=0.0000806
+ K2=0.079
+ K3= {Ind}
+ K4=0.000372
+ K5=0.441
+ L=0
+ Is=0
+ a=0
+ L_Z0=0
+ L_EL=0
+ L_F0=0E6
+ PkZ=2687.10514
.ends 0402DF-271_freq

*======================================================================
* SPICE Model generated by Coilcraft
* Coilcraft Part Number : 0402DF-271
* Inductance = 0.278uH
*======================================================================
* Model Parameters:
*   Valid Frequency Range = 0.001GHz-3GHz
*   Ambient Temperature = 25 degC
*   Inductor Impedance Model
*   Use model for Time Domain simulations
*======================================================================
.subckt 0402DF-271_imp port1 port2 PARAMS: Cpar=0.03pF Ind=0.278uH
X1 port1 port2 Model1D PARAMS:
+ R1=773
+ R2=0.265
+ C= {Cpar}
+ K1=0.0000806
+ K2=0.079
+ K3= {Ind}
+ K4=0.000372
+ K5=0.441
+ L=0
+ Is=0
+ a=0
+ L_Z0=0
+ L_EL=0
+ L_F0=0E6
+ PkZ=2687.10514
.ends 0402DF-271_imp

*======================================================================
* SPICE Model generated by Coilcraft
* Coilcraft Part Number : 0402DF-301
* Inductance = 0.316uH
*======================================================================
* Model Parameters:
*   Valid Frequency Range = 0.001GHz-3GHz
*   Ambient Temperature = 25 degC
*   Inductor Frequency Model
*   Use model for Frequency Domain simulations
*======================================================================
.subckt 0402DF-301_freq port1 port2 PARAMS: Cpar=0.033pF Ind=0.316uH
X1 port1 port2 Model1A PARAMS:
+ R1=985
+ R2=0.34
+ C= {Cpar}
+ K1=0.0000996
+ K2=0.106
+ K3= {Ind}
+ K4=0.00219
+ K5=0.00000983
+ L=0
+ Is=0
+ a=0
+ L_Z0=0
+ L_EL=0
+ L_F0=0E6
+ PkZ=2973.37025
.ends 0402DF-301_freq

*======================================================================
* SPICE Model generated by Coilcraft
* Coilcraft Part Number : 0402DF-301
* Inductance = 0.316uH
*======================================================================
* Model Parameters:
*   Valid Frequency Range = 0.001GHz-3GHz
*   Ambient Temperature = 25 degC
*   Inductor Impedance Model
*   Use model for Time Domain simulations
*======================================================================
.subckt 0402DF-301_imp port1 port2 PARAMS: Cpar=0.03pF Ind=0.316uH
X1 port1 port2 Model1D PARAMS:
+ R1=985
+ R2=0.34
+ C= {Cpar}
+ K1=0.0000996
+ K2=0.106
+ K3= {Ind}
+ K4=0.00219
+ K5=0.00000983
+ L=0
+ Is=0
+ a=0
+ L_Z0=0
+ L_EL=0
+ L_F0=0E6
+ PkZ=2973.37025
.ends 0402DF-301_imp

*======================================================================
* SPICE Model generated by Coilcraft
* Coilcraft Part Number : 0402DF-331
* Inductance = 0.341uH
*======================================================================
* Model Parameters:
*   Valid Frequency Range = 0.001GHz-3GHz
*   Ambient Temperature = 25 degC
*   Inductor Frequency Model
*   Use model for Frequency Domain simulations
*======================================================================
.subckt 0402DF-331_freq port1 port2 PARAMS: Cpar=0.032pF Ind=0.341uH
X1 port1 port2 Model1A PARAMS:
+ R1=632
+ R2=0.435
+ C= {Cpar}
+ K1=0.000284
+ K2=0.11
+ K3= {Ind}
+ K4=0.00476
+ K5=0.00000338
+ L=0
+ Is=0
+ a=0
+ L_Z0=0
+ L_EL=0
+ L_F0=0E6
+ PkZ=3427.96307
.ends 0402DF-331_freq

*======================================================================
* SPICE Model generated by Coilcraft
* Coilcraft Part Number : 0402DF-331
* Inductance = 0.341uH
*======================================================================
* Model Parameters:
*   Valid Frequency Range = 0.001GHz-3GHz
*   Ambient Temperature = 25 degC
*   Inductor Impedance Model
*   Use model for Time Domain simulations
*======================================================================
.subckt 0402DF-331_imp port1 port2 PARAMS: Cpar=0.03pF Ind=0.341uH
X1 port1 port2 Model1D PARAMS:
+ R1=632
+ R2=0.435
+ C= {Cpar}
+ K1=0.000284
+ K2=0.11
+ K3= {Ind}
+ K4=0.00476
+ K5=0.00000338
+ L=0
+ Is=0
+ a=0
+ L_Z0=0
+ L_EL=0
+ L_F0=0E6
+ PkZ=3427.96307
.ends 0402DF-331_imp

*======================================================================
* SPICE Model generated by Coilcraft
* Coilcraft Part Number : 0402DF-361
* Inductance = 0.375uH
*======================================================================
* Model Parameters:
*   Valid Frequency Range = 0.001GHz-3GHz
*   Ambient Temperature = 25 degC
*   Inductor Frequency Model
*   Use model for Frequency Domain simulations
*======================================================================
.subckt 0402DF-361_freq port1 port2 PARAMS: Cpar=0.028pF Ind=0.375uH
X1 port1 port2 Model1A PARAMS:
+ R1=1290
+ R2=0.475
+ C= {Cpar}
+ K1=0.000309
+ K2=0.166
+ K3= {Ind}
+ K4=0.00109
+ K5=0.00000983
+ L=0
+ Is=0
+ a=0
+ L_Z0=0
+ L_EL=0
+ L_F0=0E6
+ PkZ=4122.10739
.ends 0402DF-361_freq

*======================================================================
* SPICE Model generated by Coilcraft
* Coilcraft Part Number : 0402DF-361
* Inductance = 0.375uH
*======================================================================
* Model Parameters:
*   Valid Frequency Range = 0.001GHz-3GHz
*   Ambient Temperature = 25 degC
*   Inductor Impedance Model
*   Use model for Time Domain simulations
*======================================================================
.subckt 0402DF-361_imp port1 port2 PARAMS: Cpar=0.03pF Ind=0.375uH
X1 port1 port2 Model1D PARAMS:
+ R1=1290
+ R2=0.475
+ C= {Cpar}
+ K1=0.000309
+ K2=0.166
+ K3= {Ind}
+ K4=0.00109
+ K5=0.00000983
+ L=0
+ Is=0
+ a=0
+ L_Z0=0
+ L_EL=0
+ L_F0=0E6
+ PkZ=4122.10739
.ends 0402DF-361_imp

*======================================================================
* SPICE Model generated by Coilcraft
* Coilcraft Part Number : 0402DF-421
* Inductance = 0.436uH
*======================================================================
* Model Parameters:
*   Valid Frequency Range = 0.001GHz-3GHz
*   Ambient Temperature = 25 degC
*   Inductor Frequency Model
*   Use model for Frequency Domain simulations
*======================================================================
.subckt 0402DF-421_freq port1 port2 PARAMS: Cpar=0.029pF Ind=0.436uH
X1 port1 port2 Model1A PARAMS:
+ R1=546
+ R2=0.51
+ C= {Cpar}
+ K1=0.000245
+ K2=0.141
+ K3= {Ind}
+ K4=0.00411
+ K5=0.00000338
+ L=0
+ Is=0
+ a=0
+ L_Z0=0
+ L_EL=0
+ L_F0=0E6
+ PkZ=4464.34344
.ends 0402DF-421_freq

*======================================================================
* SPICE Model generated by Coilcraft
* Coilcraft Part Number : 0402DF-421
* Inductance = 0.436uH
*======================================================================
* Model Parameters:
*   Valid Frequency Range = 0.001GHz-3GHz
*   Ambient Temperature = 25 degC
*   Inductor Impedance Model
*   Use model for Time Domain simulations
*======================================================================
.subckt 0402DF-421_imp port1 port2 PARAMS: Cpar=0.03pF Ind=0.436uH
X1 port1 port2 Model1D PARAMS:
+ R1=546
+ R2=0.51
+ C= {Cpar}
+ K1=0.000245
+ K2=0.141
+ K3= {Ind}
+ K4=0.00411
+ K5=0.00000338
+ L=0
+ Is=0
+ a=0
+ L_Z0=0
+ L_EL=0
+ L_F0=0E6
+ PkZ=4464.34344
.ends 0402DF-421_imp

*======================================================================
* SPICE Model generated by Coilcraft
* Coilcraft Part Number : 0402DF-471
* Inductance = 0.484uH
*======================================================================
* Model Parameters:
*   Valid Frequency Range = 0.001GHz-3GHz
*   Ambient Temperature = 25 degC
*   Inductor Frequency Model
*   Use model for Frequency Domain simulations
*======================================================================
.subckt 0402DF-471_freq port1 port2 PARAMS: Cpar=0.024pF Ind=0.484uH
X1 port1 port2 Model1A PARAMS:
+ R1=1750
+ R2=0.67
+ C= {Cpar}
+ K1=0.0001
+ K2=0.141
+ K3= {Ind}
+ K4=0.00136
+ K5=0.00000983
+ L=0
+ Is=0
+ a=0
+ L_Z0=0
+ L_EL=0
+ L_F0=0E6
+ PkZ=3811.39436
.ends 0402DF-471_freq

*======================================================================
* SPICE Model generated by Coilcraft
* Coilcraft Part Number : 0402DF-471
* Inductance = 0.484uH
*======================================================================
* Model Parameters:
*   Valid Frequency Range = 0.001GHz-3GHz
*   Ambient Temperature = 25 degC
*   Inductor Impedance Model
*   Use model for Time Domain simulations
*======================================================================
.subckt 0402DF-471_imp port1 port2 PARAMS: Cpar=0.02pF Ind=0.484uH
X1 port1 port2 Model1D PARAMS:
+ R1=1750
+ R2=0.67
+ C= {Cpar}
+ K1=0.0001
+ K2=0.141
+ K3= {Ind}
+ K4=0.00136
+ K5=0.00000983
+ L=0
+ Is=0
+ a=0
+ L_Z0=0
+ L_EL=0
+ L_F0=0E6
+ PkZ=3811.39436
.ends 0402DF-471_imp

*======================================================================
* SPICE Model generated by Coilcraft
* Coilcraft Part Number : 0402DF-531
* Inductance = 0.612uH
*======================================================================
* Model Parameters:
*   Valid Frequency Range = 0.001GHz-3GHz
*   Ambient Temperature = 25 degC
*   Inductor Frequency Model
*   Use model for Frequency Domain simulations
*======================================================================
.subckt 0402DF-531_freq port1 port2 PARAMS: Cpar=0.034pF Ind=0.612uH
X1 port1 port2 Model1A PARAMS:
+ R1=352
+ R2=0.715
+ C= {Cpar}
+ K1=0.00027
+ K2=0.173
+ K3= {Ind}
+ K4=0.0108
+ K5=0.00000206
+ L=0
+ Is=0
+ a=0
+ L_Z0=0
+ L_EL=0
+ L_F0=0E6
+ PkZ=5240.7852
.ends 0402DF-531_freq

*======================================================================
* SPICE Model generated by Coilcraft
* Coilcraft Part Number : 0402DF-531
* Inductance = 0.612uH
*======================================================================
* Model Parameters:
*   Valid Frequency Range = 0.001GHz-3GHz
*   Ambient Temperature = 25 degC
*   Inductor Impedance Model
*   Use model for Time Domain simulations
*======================================================================
.subckt 0402DF-531_imp port1 port2 PARAMS: Cpar=0.03pF Ind=0.612uH
X1 port1 port2 Model1D PARAMS:
+ R1=352
+ R2=0.715
+ C= {Cpar}
+ K1=0.00027
+ K2=0.173
+ K3= {Ind}
+ K4=0.0108
+ K5=0.00000206
+ L=0
+ Is=0
+ a=0
+ L_Z0=0
+ L_EL=0
+ L_F0=0E6
+ PkZ=5240.7852
.ends 0402DF-531_imp

*======================================================================
* SPICE Model generated by Coilcraft
* Coilcraft Part Number : 0402DF-591
* Inductance = 0.676uH
*======================================================================
* Model Parameters:
*   Valid Frequency Range = 0.001GHz-3GHz
*   Ambient Temperature = 25 degC
*   Inductor Frequency Model
*   Use model for Frequency Domain simulations
*======================================================================
.subckt 0402DF-591_freq port1 port2 PARAMS: Cpar=0.032pF Ind=0.676uH
X1 port1 port2 Model1A PARAMS:
+ R1=133
+ R2=0.78
+ C= {Cpar}
+ K1=0.000223
+ K2=0.22
+ K3= {Ind}
+ K4=0.016
+ K5=0.00000133
+ L=0
+ Is=0
+ a=0
+ L_Z0=0
+ L_EL=0
+ L_F0=0E6
+ PkZ=7151.42005
.ends 0402DF-591_freq

*======================================================================
* SPICE Model generated by Coilcraft
* Coilcraft Part Number : 0402DF-591
* Inductance = 0.676uH
*======================================================================
* Model Parameters:
*   Valid Frequency Range = 0.001GHz-3GHz
*   Ambient Temperature = 25 degC
*   Inductor Impedance Model
*   Use model for Time Domain simulations
*======================================================================