*======================================================================
* SPICE Model generated by Coilcraft
* Coilcraft Part Number : 0402DC-0N8
* Inductance = 0.8nH
*======================================================================
* Model Parameters:
*   Valid Frequency Range = 0.001GHz-26GHz
*   Ambient Temperature = 25 degC
*   Inductor Frequency Model
*   Use model for Frequency Domain simulations
*======================================================================
.subckt 0402DC-0N8_freq port1 port2 PARAMS: Cpar=0.027pF Ind=0.8nH
X1 port1 port2 Model2A PARAMS:
+ R1=10.15
+ R2=0.025
+ C= {Cpar}
+ K1=0.00000189
+ K2=0
+ K3= {Ind}
+ K4=0
+ K5=0
+ L=0
+ Is=0
+ a=0
+ L_Z0=0
+ L_EL=0
+ L_F0=0E6
+ PkZ=2826.869
.ends 0402DC-0N8_freq

*======================================================================
* SPICE Model generated by Coilcraft
* Coilcraft Part Number : 0402DC-0N9
* Inductance = 0.9nH
*======================================================================
* Model Parameters:
*   Valid Frequency Range = 0.001GHz-26GHz
*   Ambient Temperature = 25 degC
*   Inductor Frequency Model
*   Use model for Frequency Domain simulations
*======================================================================
.subckt 0402DC-0N9_freq port1 port2 PARAMS: Cpar=0.0237pF Ind=0.9nH
X1 port1 port2 Model2A PARAMS:
+ R1=12.35
+ R2=0.03
+ C= {Cpar}
+ K1=0.00000261
+ K2=0
+ K3= {Ind}
+ K4=0
+ K5=0
+ L=0
+ Is=0
+ a=0
+ L_Z0=0
+ L_EL=0
+ L_F0=0E6
+ PkZ=2964.76997
.ends 0402DC-0N9_freq

*======================================================================
* SPICE Model generated by Coilcraft
* Coilcraft Part Number : 0402DC-1N0
* Inductance = 1nH
*======================================================================
* Model Parameters:
*   Valid Frequency Range = 0.001GHz-26GHz
*   Ambient Temperature = 25 degC
*   Inductor Frequency Model
*   Use model for Frequency Domain simulations
*======================================================================
.subckt 0402DC-1N0_freq port1 port2 PARAMS: Cpar=0.0177pF Ind=1nH
X1 port1 port2 Model2A PARAMS:
+ R1=10.65
+ R2=0.045
+ C= {Cpar}
+ K1=0.00000252
+ K2=0
+ K3= {Ind}
+ K4=0
+ K5=0
+ L=0
+ Is=0
+ a=0
+ L_Z0=0
+ L_EL=0
+ L_F0=0E6
+ PkZ=5076.64133
.ends 0402DC-1N0_freq

*======================================================================
* SPICE Model generated by Coilcraft
* Coilcraft Part Number : 0402DC-1N2
* Inductance = 1.2nH
*======================================================================
* Model Parameters:
*   Valid Frequency Range = 0.001GHz-26GHz
*   Ambient Temperature = 25 degC
*   Inductor Frequency Model
*   Use model for Frequency Domain simulations
*======================================================================
.subckt 0402DC-1N2_freq port1 port2 PARAMS: Cpar=0.0222pF Ind=1.2nH
X1 port1 port2 Model2A PARAMS:
+ R1=27.3
+ R2=0.125
+ C= {Cpar}
+ K1=0.0000045
+ K2=0
+ K3= {Ind}
+ K4=0
+ K5=0
+ L=0
+ Is=0
+ a=0
+ L_Z0=0
+ L_EL=0
+ L_F0=0E6
+ PkZ=1937.65866
.ends 0402DC-1N2_freq

*======================================================================
* SPICE Model generated by Coilcraft
* Coilcraft Part Number : 0402DC-1N7
* Inductance = 1.7nH
*======================================================================
* Model Parameters:
*   Valid Frequency Range = 0.001GHz-25GHz
*   Ambient Temperature = 25 degC
*   Inductor Frequency Model
*   Use model for Frequency Domain simulations
*======================================================================
.subckt 0402DC-1N7_freq port1 port2 PARAMS: Cpar=0.0258pF Ind=1.7nH
X1 port1 port2 Model2A PARAMS:
+ R1=22.2
+ R2=0.035
+ C= {Cpar}
+ K1=0.00000294
+ K2=0
+ K3= {Ind}
+ K4=0
+ K5=0
+ L=0
+ Is=0
+ a=0
+ L_Z0=0
+ L_EL=0
+ L_F0=0E6
+ PkZ=2919.27155
.ends 0402DC-1N7_freq

*======================================================================
* SPICE Model generated by Coilcraft
* Coilcraft Part Number : 0402DC-1N8
* Inductance = 1.8nH
*======================================================================
* Model Parameters:
*   Valid Frequency Range = 0.001GHz-24GHz
*   Ambient Temperature = 25 degC
*   Inductor Frequency Model
*   Use model for Frequency Domain simulations
*======================================================================
.subckt 0402DC-1N8_freq port1 port2 PARAMS: Cpar=0.0294pF Ind=1.8nH
X1 port1 port2 Model2A PARAMS:
+ R1=15
+ R2=0.035
+ C= {Cpar}
+ K1=0.00000344
+ K2=0
+ K3= {Ind}
+ K4=0
+ K5=0
+ L=0
+ Is=0
+ a=0
+ L_Z0=0
+ L_EL=0
+ L_F0=0E6
+ PkZ=3955.01146
.ends 0402DC-1N8_freq

*======================================================================
* SPICE Model generated by Coilcraft
* Coilcraft Part Number : 0402DC-1N9
* Inductance = 1.9nH
*======================================================================
* Model Parameters:
*   Valid Frequency Range = 0.001GHz-24GHz
*   Ambient Temperature = 25 degC
*   Inductor Frequency Model
*   Use model for Frequency Domain simulations
*======================================================================
.subckt 0402DC-1N9_freq port1 port2 PARAMS: Cpar=0.0275pF Ind=1.9nH
X1 port1 port2 Model2A PARAMS:
+ R1=19.8
+ R2=0.035
+ C= {Cpar}
+ K1=0.00000349
+ K2=0
+ K3= {Ind}
+ K4=0
+ K5=0
+ L=0
+ Is=0
+ a=0
+ L_Z0=0
+ L_EL=0
+ L_F0=0E6
+ PkZ=3410.17651
.ends 0402DC-1N9_freq

*======================================================================
* SPICE Model generated by Coilcraft
* Coilcraft Part Number : 0402DC-2N0
* Inductance = 2nH
*======================================================================
* Model Parameters:
*   Valid Frequency Range = 0.001GHz-24GHz
*   Ambient Temperature = 25 degC
*   Inductor Frequency Model
*   Use model for Frequency Domain simulations
*======================================================================
.subckt 0402DC-2N0_freq port1 port2 PARAMS: Cpar=0.0263pF Ind=2nH
X1 port1 port2 Model2A PARAMS:
+ R1=16.2
+ R2=0.035
+ C= {Cpar}
+ K1=0.00000427
+ K2=0
+ K3= {Ind}
+ K4=0
+ K5=0
+ L=0
+ Is=0
+ a=0
+ L_Z0=0
+ L_EL=0
+ L_F0=0E6
+ PkZ=4525.60929
.ends 0402DC-2N0_freq

*======================================================================
* SPICE Model generated by Coilcraft
* Coilcraft Part Number : 0402DC-2N1
* Inductance = 2.1nH
*======================================================================
* Model Parameters:
*   Valid Frequency Range = 0.001GHz-24GHz
*   Ambient Temperature = 25 degC
*   Inductor Frequency Model
*   Use model for Frequency Domain simulations
*======================================================================
.subckt 0402DC-2N1_freq port1 port2 PARAMS: Cpar=0.025pF Ind=2.1nH
X1 port1 port2 Model2A PARAMS:
+ R1=18
+ R2=0.048
+ C= {Cpar}
+ K1=0.00000587
+ K2=0
+ K3= {Ind}
+ K4=0
+ K5=0
+ L=0
+ Is=0
+ a=0
+ L_Z0=0
+ L_EL=0
+ L_F0=0E6
+ PkZ=4460.16028
.ends 0402DC-2N1_freq

*======================================================================
* SPICE Model generated by Coilcraft
* Coilcraft Part Number : 0402DC-2N2
* Inductance = 2.2nH
*======================================================================
* Model Parameters:
*   Valid Frequency Range = 0.001GHz-23GHz
*   Ambient Temperature = 25 degC
*   Inductor Frequency Model
*   Use model for Frequency Domain simulations
*======================================================================
.subckt 0402DC-2N2_freq port1 port2 PARAMS: Cpar=0.0242pF Ind=2.2nH
X1 port1 port2 Model2A PARAMS:
+ R1=19
+ R2=0.09
+ C= {Cpar}
+ K1=0.00000559
+ K2=0
+ K3= {Ind}
+ K4=0
+ K5=0
+ L=0
+ Is=0
+ a=0
+ L_Z0=0
+ L_EL=0
+ L_F0=0E6
+ PkZ=4594.64521
.ends 0402DC-2N2_freq

*======================================================================
* SPICE Model generated by Coilcraft
* Coilcraft Part Number : 0402DC-2N3
* Inductance = 2.3nH
*======================================================================
* Model Parameters:
*   Valid Frequency Range = 0.001GHz-23GHz
*   Ambient Temperature = 25 degC
*   Inductor Frequency Model
*   Use model for Frequency Domain simulations
*======================================================================
.subckt 0402DC-2N3_freq port1 port2 PARAMS: Cpar=0.0231pF Ind=2.3nH
X1 port1 port2 Model2A PARAMS:
+ R1=19
+ R2=0.11
+ C= {Cpar}
+ K1=0.00000604
+ K2=0
+ K3= {Ind}
+ K4=0
+ K5=0
+ L=0
+ Is=0
+ a=0
+ L_Z0=0
+ L_EL=0
+ L_F0=0E6
+ PkZ=5014.45167
.ends 0402DC-2N3_freq

*======================================================================
* SPICE Model generated by Coilcraft
* Coilcraft Part Number : 0402DC-2N4
* Inductance = 2.4nH
*======================================================================
* Model Parameters:
*   Valid Frequency Range = 0.001GHz-22GHz
*   Ambient Temperature = 25 degC
*   Inductor Frequency Model
*   Use model for Frequency Domain simulations
*======================================================================
.subckt 0402DC-2N4_freq port1 port2 PARAMS: Cpar=0.0223pF Ind=2.4nH
X1 port1 port2 Model2A PARAMS:
+ R1=16.6
+ R2=0.17
+ C= {Cpar}
+ K1=0.0000058
+ K2=0
+ K3= {Ind}
+ K4=0
+ K5=0
+ L=0
+ Is=0
+ a=0
+ L_Z0=0
+ L_EL=0
+ L_F0=0E6
+ PkZ=6173.66868
.ends 0402DC-2N4_freq

*======================================================================
* SPICE Model generated by Coilcraft
* Coilcraft Part Number : 0402DC-2N5
* Inductance = 2.5nH
*======================================================================
* Model Parameters:
*   Valid Frequency Range = 0.001GHz-22GHz
*   Ambient Temperature = 25 degC
*   Inductor Frequency Model
*   Use model for Frequency Domain simulations
*======================================================================
.subckt 0402DC-2N5_freq port1 port2 PARAMS: Cpar=0.02574pF Ind=2.5nH
X1 port1 port2 Model2A PARAMS:
+ R1=15.8
+ R2=0.21
+ C= {Cpar}
+ K1=0.0000083
+ K2=0
+ K3= {Ind}
+ K4=0
+ K5=0
+ L=0
+ Is=0
+ a=0
+ L_Z0=0
+ L_EL=0
+ L_F0=0E6
+ PkZ=5731.24622
.ends 0402DC-2N5_freq

*======================================================================
* SPICE Model generated by Coilcraft
* Coilcraft Part Number : 0402DC-2N8
* Inductance = 2.8nH
*======================================================================
* Model Parameters:
*   Valid Frequency Range = 0.001GHz-20GHz
*   Ambient Temperature = 25 degC
*   Inductor Frequency Model
*   Use model for Frequency Domain simulations
*======================================================================
.subckt 0402DC-2N8_freq port1 port2 PARAMS: Cpar=0.02779pF Ind=2.8nH
X1 port1 port2 Model2A PARAMS:
+ R1=33.16
+ R2=0.037
+ C= {Cpar}
+ K1=0.00000611
+ K2=0
+ K3= {Ind}
+ K4=0
+ K5=0
+ L=0
+ Is=0
+ a=0
+ L_Z0=0
+ L_EL=0
+ L_F0=0E6
+ PkZ=2981.26667
.ends 0402DC-2N8_freq

*======================================================================
* SPICE Model generated by Coilcraft
* Coilcraft Part Number : 0402DC-2N9
* Inductance = 2.9nH
*======================================================================
* Model Parameters:
*   Valid Frequency Range = 0.001GHz-20GHz
*   Ambient Temperature = 25 degC
*   Inductor Frequency Model
*   Use model for Frequency Domain simulations
*======================================================================
.subckt 0402DC-2N9_freq port1 port2 PARAMS: Cpar=0.0264pF Ind=2.9nH
X1 port1 port2 Model2A PARAMS:
+ R1=26.5
+ R2=0.037
+ C= {Cpar}
+ K1=0.00000644
+ K2=0
+ K3= {Ind}
+ K4=0
+ K5=0
+ L=0
+ Is=0
+ a=0
+ L_Z0=0
+ L_EL=0
+ L_F0=0E6
+ PkZ=4026.53531
.ends 0402DC-2N9_freq

*======================================================================
* SPICE Model generated by Coilcraft
* Coilcraft Part Number : 0402DC-3N0
* Inductance = 3nH
*======================================================================
* Model Parameters:
*   Valid Frequency Range = 0.001GHz-18GHz
*   Ambient Temperature = 25 degC
*   Inductor Frequency Model
*   Use model for Frequency Domain simulations
*======================================================================
.subckt 0402DC-3N0_freq port1 port2 PARAMS: Cpar=0.0316pF Ind=3nH
X1 port1 port2 Model2A PARAMS:
+ R1=17.2
+ R2=0.037
+ C= {Cpar}
+ K1=0.00000546
+ K2=0
+ K3= {Ind}
+ K4=0
+ K5=0
+ L=0
+ Is=0
+ a=0
+ L_Z0=0
+ L_EL=0
+ L_F0=0E6
+ PkZ=5312.60658
.ends 0402DC-3N0_freq

*======================================================================
* SPICE Model generated by Coilcraft
* Coilcraft Part Number : 0402DC-3N1
* Inductance = 3.1nH
*======================================================================
* Model Parameters:
*   Valid Frequency Range = 0.001GHz-18GHz
*   Ambient Temperature = 25 degC
*   Inductor Frequency Model
*   Use model for Frequency Domain simulations
*======================================================================
.subckt 0402DC-3N1_freq port1 port2 PARAMS: Cpar=0.025pF Ind=3.1nH
X1 port1 port2 Model2A PARAMS:
+ R1=30.6
+ R2=0.037
+ C= {Cpar}
+ K1=0.00000614
+ K2=0
+ K3= {Ind}
+ K4=0
+ K5=0
+ L=0
+ Is=0
+ a=0
+ L_Z0=0
+ L_EL=0
+ L_F0=0E6
+ PkZ=3960.74936
.ends 0402DC-3N1_freq

*======================================================================
* SPICE Model generated by Coilcraft
* Coilcraft Part Number : 0402DC-3N2
* Inductance = 3.2nH
*======================================================================
* Model Parameters:
*   Valid Frequency Range = 0.001GHz-16GHz
*   Ambient Temperature = 25 degC
*   Inductor Frequency Model
*   Use model for Frequency Domain simulations
*======================================================================
.subckt 0402DC-3N2_freq port1 port2 PARAMS: Cpar=0.0356pF Ind=3.2nH
X1 port1 port2 Model2A PARAMS:
+ R1=18.5
+ R2=0.037
+ C= {Cpar}
+ K1=0.0000057
+ K2=0
+ K3= {Ind}
+ K4=0
+ K5=0
+ L=0
+ Is=0
+ a=0
+ L_Z0=0
+ L_EL=0
+ L_F0=0E6
+ PkZ=4691.56913
.ends 0402DC-3N2_freq

*======================================================================
* SPICE Model generated by Coilcraft
* Coilcraft Part Number : 0402DC-3N3
* Inductance = 3.3nH
*======================================================================
* Model Parameters:
*   Valid Frequency Range = 0.001GHz-16GHz
*   Ambient Temperature = 25 degC
*   Inductor Frequency Model
*   Use model for Frequency Domain simulations
*======================================================================
.subckt 0402DC-3N3_freq port1 port2 PARAMS: Cpar=0.0347pF Ind=3.3nH
X1 port1 port2 Model2A PARAMS:
+ R1=18.8
+ R2=0.037
+ C= {Cpar}
+ K1=0.0000056
+ K2=0
+ K3= {Ind}
+ K4=0
+ K5=0
+ L=0
+ Is=0
+ a=0
+ L_Z0=0
+ L_EL=0
+ L_F0=0E6
+ PkZ=4890.34701
.ends 0402DC-3N3_freq

*======================================================================
* SPICE Model generated by Coilcraft
* Coilcraft Part Number : 0402DC-3N4
* Inductance = 3.4nH
*======================================================================
* Model Parameters:
*   Valid Frequency Range = 0.001GHz-16GHz
*   Ambient Temperature = 25 degC
*   Inductor Frequency Model
*   Use model for Frequency Domain simulations
*======================================================================
.subckt 0402DC-3N4_freq port1 port2 PARAMS: Cpar=0.0328pF Ind=3.4nH
X1 port1 port2 Model2A PARAMS:
+ R1=13.98
+ R2=0.046
+ C= {Cpar}
+ K1=0.00000582
+ K2=0
+ K3= {Ind}
+ K4=0
+ K5=0
+ L=0
+ Is=0
+ a=0
+ L_Z0=0
+ L_EL=0
+ L_F0=0E6
+ PkZ=7060.95659
.ends 0402DC-3N4_freq

*======================================================================
* SPICE Model generated by Coilcraft
* Coilcraft Part Number : 0402DC-3N5
* Inductance = 3.5nH
*======================================================================
* Model Parameters:
*   Valid Frequency Range = 0.001GHz-15GHz
*   Ambient Temperature = 25 degC
*   Inductor Frequency Model
*   Use model for Frequency Domain simulations
*======================================================================
.subckt 0402DC-3N5_freq port1 port2 PARAMS: Cpar=0.0394pF Ind=3.5nH
X1 port1 port2 Model2A PARAMS:
+ R1=16.64
+ R2=0.046
+ C= {Cpar}
+ K1=0.00000595
+ K2=0
+ K3= {Ind}
+ K4=0
+ K5=0
+ L=0
+ Is=0
+ a=0
+ L_Z0=0
+ L_EL=0
+ L_F0=0E6
+ PkZ=5133.18386
.ends 0402DC-3N5_freq

*======================================================================
* SPICE Model generated by Coilcraft
* Coilcraft Part Number : 0402DC-3N6
* Inductance = 3.6nH
*======================================================================
* Model Parameters:
*   Valid Frequency Range = 0.001GHz-16GHz
*   Ambient Temperature = 25 degC
*   Inductor Frequency Model
*   Use model for Frequency Domain simulations
*======================================================================
.subckt 0402DC-3N6_freq port1 port2 PARAMS: Cpar=0.0313pF Ind=3.6nH
X1 port1 port2 Model2A PARAMS:
+ R1=5.86
+ R2=0.046
+ C= {Cpar}
+ K1=0.00000628
+ K2=0
+ K3= {Ind}
+ K4=0
+ K5=0
+ L=0
+ Is=0
+ a=0
+ L_Z0=0
+ L_EL=0
+ L_F0=0E6
+ PkZ=17353.1913
.ends 0402DC-3N6_freq

*======================================================================
* SPICE Model generated by Coilcraft
* Coilcraft Part Number : 0402DC-3N7
* Inductance = 3.7nH
*======================================================================
* Model Parameters:
*   Valid Frequency Range = 0.001GHz-15GHz
*   Ambient Temperature = 25 degC
*   Inductor Frequency Model
*   Use model for Frequency Domain simulations
*======================================================================
.subckt 0402DC-3N7_freq port1 port2 PARAMS: Cpar=0.0445pF Ind=3.7nH
X1 port1 port2 Model2A PARAMS:
+ R1=23.62
+ R2=0.046
+ C= {Cpar}
+ K1=0.00000616
+ K2=0
+ K3= {Ind}
+ K4=0
+ K5=0
+ L=0
+ Is=0
+ a=0
+ L_Z0=0
+ L_EL=0
+ L_F0=0E6
+ PkZ=3432.31142
.ends 0402DC-3N7_freq

*======================================================================
* SPICE Model generated by Coilcraft
* Coilcraft Part Number : 0402DC-3N8
* Inductance = 3.8nH
*======================================================================
* Model Parameters:
*   Valid Frequency Range = 0.001GHz-14GHz
*   Ambient Temperature = 25 degC
*   Inductor Frequency Model
*   Use model for Frequency Domain simulations
*======================================================================
.subckt 0402DC-3N8_freq port1 port2 PARAMS: Cpar=0.0362pF Ind=3.8nH
X1 port1 port2 Model2A PARAMS:
+ R1=31.4
+ R2=0.046
+ C= {Cpar}
+ K1=0.00000605
+ K2=0
+ K3= {Ind}
+ K4=0
+ K5=0
+ L=0
+ Is=0
+ a=0
+ L_Z0=0
+ L_EL=0
+ L_F0=0E6
+ PkZ=3285.05545
.ends 0402DC-3N8_freq

*======================================================================
* SPICE Model generated by Coilcraft
* Coilcraft Part Number : 0402DC-3N9
* Inductance = 3.9nH
*======================================================================
* Model Parameters:
*   Valid Frequency Range = 0.001GHz-14GHz
*   Ambient Temperature = 25 degC
*   Inductor Frequency Model
*   Use model for Frequency Domain simulations
*======================================================================
.subckt 0402DC-3N9_freq port1 port2 PARAMS: Cpar=0.04255pF Ind=3.9nH
X1 port1 port2 Model2A PARAMS:
+ R1=26
+ R2=0.046
+ C= {Cpar}
+ K1=0.0000065
+ K2=0
+ K3= {Ind}
+ K4=0
+ K5=0
+ L=0
+ Is=0
+ a=0
+ L_Z0=0
+ L_EL=0
+ L_F0=0E6
+ PkZ=3442.63341
.ends 0402DC-3N9_freq

*======================================================================
* SPICE Model generated by Coilcraft
* Coilcraft Part Number : 0402DC-4N0
* Inductance = 4nH
*======================================================================
* Model Parameters:
*   Valid Frequency Range = 0.001GHz-14GHz
*   Ambient Temperature = 25 degC
*   Inductor Frequency Model
*   Use model for Frequency Domain simulations
*======================================================================
.subckt 0402DC-4N0_freq port1 port2 PARAMS: Cpar=0.0408pF Ind=4nH
X1 port1 port2 Model2A PARAMS:
+ R1=32.5
+ R2=0.046
+ C= {Cpar}
+ K1=0.0000066
+ K2=0
+ K3= {Ind}
+ K4=0
+ K5=0
+ L=0
+ Is=0
+ a=0
+ L_Z0=0
+ L_EL=0
+ L_F0=0E6
+ PkZ=2965.63147
.ends 0402DC-4N0_freq

*======================================================================
* SPICE Model generated by Coilcraft
* Coilcraft Part Number : 0402DC-4N1
* Inductance = 4.1nH
*======================================================================
* Model Parameters:
*   Valid Frequency Range = 0.001GHz-14GHz
*   Ambient Temperature = 25 degC
*   Inductor Frequency Model
*   Use model for Frequency Domain simulations
*======================================================================
.subckt 0402DC-4N1_freq port1 port2 PARAMS: Cpar=0.0495pF Ind=4.1nH
X1 port1 port2 Model2A PARAMS:
+ R1=6.94
+ R2=0.046
+ C= {Cpar}
+ K1=0.0000069
+ K2=0
+ K3= {Ind}
+ K4=0
+ K5=0
+ L=0
+ Is=0
+ a=0
+ L_Z0=0
+ L_EL=0
+ L_F0=0E6
+ PkZ=10803.1862
.ends 0402DC-4N1_freq

*======================================================================
* SPICE Model generated by Coilcraft
* Coilcraft Part Number : 0402DC-4N2
* Inductance = 4.2nH
*======================================================================
* Model Parameters:
*   Valid Frequency Range = 0.001GHz-15GHz
*   Ambient Temperature = 25 degC
*   Inductor Frequency Model
*   Use model for Frequency Domain simulations
*======================================================================
.subckt 0402DC-4N2_freq port1 port2 PARAMS: Cpar=0.0583pF Ind=4.2nH
X1 port1 port2 Model2A PARAMS:
+ R1=13.4
+ R2=0.046
+ C= {Cpar}
+ K1=0.00000685
+ K2=0
+ K3= {Ind}
+ K4=0
+ K5=0
+ L=0
+ Is=0
+ a=0
+ L_Z0=0
+ L_EL=0
+ L_F0=0E6
+ PkZ=5119.05804
.ends 0402DC-4N2_freq

*======================================================================
* SPICE Model generated by Coilcraft
* Coilcraft Part Number : 0402DC-4N3
* Inductance = 4.3nH
*======================================================================
* Model Parameters:
*   Valid Frequency Range = 0.001GHz-15GHz
*   Ambient Temperature = 25 degC
*   Inductor Frequency Model
*   Use model for Frequency Domain simulations
*======================================================================
.subckt 0402DC-4N3_freq port1 port2 PARAMS: Cpar=0.0318pF Ind=4.3nH
X1 port1 port2 Model2A PARAMS:
+ R1=30
+ R2=0.048
+ C= {Cpar}
+ K1=0.0000082
+ K2=0
+ K3= {Ind}
+ K4=0
+ K5=0
+ L=0
+ Is=0
+ a=0
+ L_Z0=0
+ L_EL=0
+ L_F0=0E6
+ PkZ=4382.62373
.ends 0402DC-4N3_freq

*======================================================================
* SPICE Model generated by Coilcraft
* Coilcraft Part Number : 0402DC-4N4
* Inductance = 4.4nH
*======================================================================
* Model Parameters:
*   Valid Frequency Range = 0.001GHz-16GHz
*   Ambient Temperature = 25 degC
*   Inductor Frequency Model
*   Use model for Frequency Domain simulations
*======================================================================
.subckt 0402DC-4N4_freq port1 port2 PARAMS: Cpar=0.0252pF Ind=4.4nH
X1 port1 port2 Model2A PARAMS:
+ R1=44.5
+ R2=0.048
+ C= {Cpar}
+ K1=0.00000785
+ K2=0
+ K3= {Ind}
+ K4=0
+ K5=0
+ L=0
+ Is=0
+ a=0
+ L_Z0=0
+ L_EL=0
+ L_F0=0E6
+ PkZ=3862.15354
.ends 0402DC-4N4_freq

*======================================================================
* SPICE Model generated by Coilcraft
* Coilcraft Part Number : 0402DC-4N5
* Inductance = 4.5nH
*======================================================================
* Model Parameters:
*   Valid Frequency Range = 0.001GHz-15GHz
*   Ambient Temperature = 25 degC
*   Inductor Frequency Model
*   Use model for Frequency Domain simulations
*======================================================================
.subckt 0402DC-4N5_freq port1 port2 PARAMS: Cpar=0.0304pF Ind=4.5nH
X1 port1 port2 Model2A PARAMS:
+ R1=11
+ R2=0.048
+ C= {Cpar}
+ K1=0.00000835
+ K2=0
+ K3= {Ind}
+ K4=0
+ K5=0
+ L=0
+ Is=0
+ a=0
+ L_Z0=0
+ L_EL=0
+ L_F0=0E6
+ PkZ=12367.4132
.ends 0402DC-4N5_freq

*======================================================================
* SPICE Model generated by Coilcraft
* Coilcraft Part Number : 0402DC-4N6
* Inductance = 4.6nH
*======================================================================
* Model Parameters:
*   Valid Frequency Range = 0.001GHz-15GHz
*   Ambient Temperature = 25 degC
*   Inductor Frequency Model
*   Use model for Frequency Domain simulations
*======================================================================
.subckt 0402DC-4N6_freq port1 port2 PARAMS: Cpar=0.03pF Ind=4.6nH
X1 port1 port2 Model2A PARAMS:
+ R1=16.78
+ R2=0.048
+ C= {Cpar}
+ K1=0.00000835
+ K2=0
+ K3= {Ind}
+ K4=0
+ K5=0
+ L=0
+ Is=0
+ a=0
+ L_Z0=0
+ L_EL=0
+ L_F0=0E6
+ PkZ=8645.56895
.ends 0402DC-4N6_freq

*======================================================================
* SPICE Model generated by Coilcraft
* Coilcraft Part Number : 0402DC-4N7
* Inductance = 4.7nH
*======================================================================
* Model Parameters:
*   Valid Frequency Range = 0.001GHz-15GHz
*   Ambient Temperature = 25 degC
*   Inductor Frequency Model
*   Use model for Frequency Domain simulations
*======================================================================
.subckt 0402DC-4N7_freq port1 port2 PARAMS: Cpar=0.0353pF Ind=4.7nH
X1 port1 port2 Model2A PARAMS:
+ R1=24.36
+ R2=0.048
+ C= {Cpar}
+ K1=0.0000079
+ K2=0
+ K3= {Ind}
+ K4=0
+ K5=0
+ L=0
+ Is=0
+ a=0
+ L_Z0=0
+ L_EL=0
+ L_F0=0E6
+ PkZ=5287.33058
.ends 0402DC-4N7_freq

*======================================================================
* SPICE Model generated by Coilcraft
* Coilcraft Part Number : 0402DC-4N8
* Inductance = 4.8nH
*======================================================================
* Model Parameters:
*   Valid Frequency Range = 0.001GHz-15GHz
*   Ambient Temperature = 25 degC
*   Inductor Frequency Model
*   Use model for Frequency Domain simulations
*======================================================================
.subckt 0402DC-4N8_freq port1 port2 PARAMS: Cpar=0.0348pF Ind=4.8nH
X1 port1 port2 Model2A PARAMS:
+ R1=13.96
+ R2=0.048
+ C= {Cpar}
+ K1=0.00000845
+ K2=0
+ K3= {Ind}
+ K4=0
+ K5=0
+ L=0
+ Is=0
+ a=0
+ L_Z0=0
+ L_EL=0
+ L_F0=0E6
+ PkZ=9265.16438
.ends 0402DC-4N8_freq

*======================================================================
* SPICE Model generated by Coilcraft
* Coilcraft Part Number : 0402DC-4N9
* Inductance = 4.9nH
*======================================================================
* Model Parameters:
*   Valid Frequency Range = 0.001GHz-15GHz
*   Ambient Temperature = 25 degC
*   Inductor Frequency Model
*   Use model for Frequency Domain simulations
*======================================================================
.subckt 0402DC-4N9_freq port1 port2 PARAMS: Cpar=0.0338pF Ind=4.9nH
X1 port1 port2 Model2A PARAMS:
+ R1=15.88
+ R2=0.048
+ C= {Cpar}
+ K1=0.0000085
+ K2=0
+ K3= {Ind}
+ K4=0
+ K5=0
+ L=0
+ Is=0
+ a=0
+ L_Z0=0
+ L_EL=0
+ L_F0=0E6
+ PkZ=8623.80187
.ends 0402DC-4N9_freq

*======================================================================
* SPICE Model generated by Coilcraft
* Coilcraft Part Number : 0402DC-5N0
* Inductance = 5nH
*======================================================================
* Model Parameters:
*   Valid Frequency Range = 0.001GHz-14GHz
*   Ambient Temperature = 25 degC
*   Inductor Frequency Model
*   Use model for Frequency Domain simulations
*======================================================================
.subckt 0402DC-5N0_freq port1 port2 PARAMS: Cpar=0.04pF Ind=5nH
X1 port1 port2 Model2A PARAMS:
+ R1=21.08
+ R2=0.048
+ C= {Cpar}
+ K1=0.0000084
+ K2=0
+ K3= {Ind}
+ K4=0
+ K5=0
+ L=0
+ Is=0
+ a=0
+ L_Z0=0
+ L_EL=0
+ L_F0=0E6
+ PkZ=5699.45851
.ends 0402DC-5N0_freq

*======================================================================
* SPICE Model generated by Coilcraft
* Coilcraft Part Number : 0402DC-5N1
* Inductance = 5.1nH
*======================================================================
* Model Parameters:
*   Valid Frequency Range = 0.001GHz-15GHz
*   Ambient Temperature = 25 degC
*   Inductor Frequency Model
*   Use model for Frequency Domain simulations
*======================================================================
.subckt 0402DC-5N1_freq port1 port2 PARAMS: Cpar=0.0393pF Ind=5.1nH
X1 port1 port2 Model2A PARAMS:
+ R1=13.28
+ R2=0.048
+ C= {Cpar}
+ K1=0.0000088
+ K2=0
+ K3= {Ind}
+ K4=0
+ K5=0
+ L=0
+ Is=0
+ a=0
+ L_Z0=0
+ L_EL=0
+ L_F0=0E6
+ PkZ=9136.69578
.ends 0402DC-5N1_freq

*======================================================================
* SPICE Model generated by Coilcraft
* Coilcraft Part Number : 0402DC-5N2
* Inductance = 5.2nH
*======================================================================
* Model Parameters:
*   Valid Frequency Range = 0.001GHz-14GHz
*   Ambient Temperature = 25 degC
*   Inductor Frequency Model
*   Use model for Frequency Domain simulations
*======================================================================
.subckt 0402DC-5N2_freq port1 port2 PARAMS: Cpar=0.0385pF Ind=5.2nH
X1 port1 port2 Model2A PARAMS:
+ R1=24.34
+ R2=0.048
+ C= {Cpar}
+ K1=0.00000855
+ K2=0
+ K3= {Ind}
+ K4=0
+ K5=0
+ L=0
+ Is=0
+ a=0
+ L_Z0=0
+ L_EL=0
+ L_F0=0E6
+ PkZ=5361.56917
.ends 0402DC-5N2_freq

*======================================================================
* SPICE Model generated by Coilcraft
* Coilcraft Part Number : 0402DC-5N3
* Inductance = 5.3nH
*======================================================================
* Model Parameters: