*======================================================================
* SPICE Model generated by Coilcraft
* Coilcraft Part Number : 0603CT-1N0
* Inductance = 1nH
*======================================================================
* Model Parameters:
*   Valid Frequency Range = 0.001GHz-26GHz
*   Ambient Temperature = 25 degC
*   Inductor Frequency Model
*   Use model for Frequency Domain simulations
*======================================================================
.subckt 0603CT-1N0_freq port1 port2 PARAMS: Cpar=0.0192pF Ind=1nH
X1 port1 port2 Model2A PARAMS:
+ R1=44.72
+ R2=0.036
+ C= {Cpar}
+ K1=0.00000331
+ K2=0
+ K3= {Ind}
+ K4=0
+ K5=0
+ L=0
+ Is=0
+ a=0
+ L_Z0=0
+ L_EL=0
+ L_F0=0E6
+ PkZ=1170.33489
.ends 0603CT-1N0_freq

*======================================================================
* SPICE Model generated by Coilcraft
* Coilcraft Part Number : 0603CT-1N2
* Inductance = 1.2nH
*======================================================================
* Model Parameters:
*   Valid Frequency Range = 0.001GHz-26GHz
*   Ambient Temperature = 25 degC
*   Inductor Frequency Model
*   Use model for Frequency Domain simulations
*======================================================================
.subckt 0603CT-1N2_freq port1 port2 PARAMS: Cpar=0.0216pF Ind=1.2nH
X1 port1 port2 Model2A PARAMS:
+ R1=85.72
+ R2=0.084
+ C= {Cpar}
+ K1=0.00000341
+ K2=0
+ K3= {Ind}
+ K4=0
+ K5=0
+ L=0
+ Is=0
+ a=0
+ L_Z0=0
+ L_EL=0
+ L_F0=0E6
+ PkZ=684.898942
.ends 0603CT-1N2_freq

*======================================================================
* SPICE Model generated by Coilcraft
* Coilcraft Part Number : 0603CT-2N0
* Inductance = 2nH
*======================================================================
* Model Parameters:
*   Valid Frequency Range = 0.001GHz-18GHz
*   Ambient Temperature = 25 degC
*   Inductor Frequency Model
*   Use model for Frequency Domain simulations
*======================================================================
.subckt 0603CT-2N0_freq port1 port2 PARAMS: Cpar=0.0446pF Ind=2nH
X1 port1 port2 Model2A PARAMS:
+ R1=9.58
+ R2=0.027
+ C= {Cpar}
+ K1=0.00000665
+ K2=0
+ K3= {Ind}
+ K4=0
+ K5=0
+ L=0
+ Is=0
+ a=0
+ L_Z0=0
+ L_EL=0
+ L_F0=0E6
+ PkZ=4298.4258
.ends 0603CT-2N0_freq

*======================================================================
* SPICE Model generated by Coilcraft
* Coilcraft Part Number : 0603CT-2N2
* Inductance = 2.2nH
*======================================================================
* Model Parameters:
*   Valid Frequency Range = 0.001GHz-17.5GHz
*   Ambient Temperature = 25 degC
*   Inductor Frequency Model
*   Use model for Frequency Domain simulations
*======================================================================
.subckt 0603CT-2N2_freq port1 port2 PARAMS: Cpar=0.0582pF Ind=2.2nH
X1 port1 port2 Model2A PARAMS:
+ R1=3.12
+ R2=0.037
+ C= {Cpar}
+ K1=0.00000647
+ K2=0
+ K3= {Ind}
+ K4=0
+ K5=0
+ L=0
+ Is=0
+ a=0
+ L_Z0=0
+ L_EL=0
+ L_F0=0E6
+ PkZ=9725.4581
.ends 0603CT-2N2_freq

*======================================================================
* SPICE Model generated by Coilcraft
* Coilcraft Part Number : 0603CT-2N3
* Inductance = 2.3nH
*======================================================================
* Model Parameters:
*   Valid Frequency Range = 0.001GHz-17GHz
*   Ambient Temperature = 25 degC
*   Inductor Frequency Model
*   Use model for Frequency Domain simulations
*======================================================================
.subckt 0603CT-2N3_freq port1 port2 PARAMS: Cpar=0.055pF Ind=2.3nH
X1 port1 port2 Model2A PARAMS:
+ R1=3.08
+ R2=0.037
+ C= {Cpar}
+ K1=0.0000062
+ K2=0
+ K3= {Ind}
+ K4=0
+ K5=0
+ L=0
+ Is=0
+ a=0
+ L_Z0=0
+ L_EL=0
+ L_F0=0E6
+ PkZ=10955.6043
.ends 0603CT-2N3_freq

*======================================================================
* SPICE Model generated by Coilcraft
* Coilcraft Part Number : 0603CT-2N5
* Inductance = 2.5nH
*======================================================================
* Model Parameters:
*   Valid Frequency Range = 0.001GHz-17GHz
*   Ambient Temperature = 25 degC
*   Inductor Frequency Model
*   Use model for Frequency Domain simulations
*======================================================================
.subckt 0603CT-2N5_freq port1 port2 PARAMS: Cpar=0.0522pF Ind=2.5nH
X1 port1 port2 Model2A PARAMS:
+ R1=3.98
+ R2=0.048
+ C= {Cpar}
+ K1=0.0000072
+ K2=0
+ K3= {Ind}
+ K4=0
+ K5=0
+ L=0
+ Is=0
+ a=0
+ L_Z0=0
+ L_EL=0
+ L_F0=0E6
+ PkZ=9917.75684
.ends 0603CT-2N5_freq

*======================================================================
* SPICE Model generated by Coilcraft
* Coilcraft Part Number : 0603CT-3N0
* Inductance = 3nH
*======================================================================
* Model Parameters:
*   Valid Frequency Range = 0.001GHz-17GHz
*   Ambient Temperature = 25 degC
*   Inductor Frequency Model
*   Use model for Frequency Domain simulations
*======================================================================
.subckt 0603CT-3N0_freq port1 port2 PARAMS: Cpar=0.033pF Ind=3nH
X1 port1 port2 Model2A PARAMS:
+ R1=9.6
+ R2=0.031
+ C= {Cpar}
+ K1=0.0000083
+ K2=0
+ K3= {Ind}
+ K4=0
+ K5=0
+ L=0
+ Is=0
+ a=0
+ L_Z0=0
+ L_EL=0
+ L_F0=0E6
+ PkZ=8540.68634
.ends 0603CT-3N0_freq

*======================================================================
* SPICE Model generated by Coilcraft
* Coilcraft Part Number : 0603CT-3N3
* Inductance = 3.3nH
*======================================================================
* Model Parameters:
*   Valid Frequency Range = 0.001GHz-16GHz
*   Ambient Temperature = 25 degC
*   Inductor Frequency Model
*   Use model for Frequency Domain simulations
*======================================================================
.subckt 0603CT-3N3_freq port1 port2 PARAMS: Cpar=0.0402pF Ind=3.3nH
X1 port1 port2 Model2A PARAMS:
+ R1=2.1
+ R2=0.031
+ C= {Cpar}
+ K1=0.0000091
+ K2=0
+ K3= {Ind}
+ K4=0
+ K5=0
+ L=0
+ Is=0
+ a=0
+ L_Z0=0
+ L_EL=0
+ L_F0=0E6
+ PkZ=25899.0254
.ends 0603CT-3N3_freq

*======================================================================
* SPICE Model generated by Coilcraft
* Coilcraft Part Number : 0603CT-3N6
* Inductance = 3.6nH
*======================================================================
* Model Parameters:
*   Valid Frequency Range = 0.001GHz-16GHz
*   Ambient Temperature = 25 degC
*   Inductor Frequency Model
*   Use model for Frequency Domain simulations
*======================================================================
.subckt 0603CT-3N6_freq port1 port2 PARAMS: Cpar=0.035pF Ind=3.6nH
X1 port1 port2 Model2A PARAMS:
+ R1=2.9
+ R2=0.035
+ C= {Cpar}
+ K1=0.0000089
+ K2=0
+ K3= {Ind}
+ K4=0
+ K5=0
+ L=0
+ Is=0
+ a=0
+ L_Z0=0
+ L_EL=0
+ L_F0=0E6
+ PkZ=25976.8397
.ends 0603CT-3N6_freq

*======================================================================
* SPICE Model generated by Coilcraft
* Coilcraft Part Number : 0603CT-3N9
* Inductance = 3.9nH
*======================================================================
* Model Parameters:
*   Valid Frequency Range = 0.001GHz-14GHz
*   Ambient Temperature = 25 degC
*   Inductor Frequency Model
*   Use model for Frequency Domain simulations
*======================================================================
.subckt 0603CT-3N9_freq port1 port2 PARAMS: Cpar=0.0447pF Ind=3.9nH
X1 port1 port2 Model2A PARAMS:
+ R1=5.79
+ R2=0.04
+ C= {Cpar}
+ K1=0.0000084
+ K2=0
+ K3= {Ind}
+ K4=0
+ K5=0
+ L=0
+ Is=0
+ a=0
+ L_Z0=0
+ L_EL=0
+ L_F0=0E6
+ PkZ=13000.9818
.ends 0603CT-3N9_freq

*======================================================================
* SPICE Model generated by Coilcraft
* Coilcraft Part Number : 0603CT-4N3
* Inductance = 4.3nH
*======================================================================
* Model Parameters:
*   Valid Frequency Range = 0.001GHz-14GHz
*   Ambient Temperature = 25 degC
*   Inductor Frequency Model
*   Use model for Frequency Domain simulations
*======================================================================
.subckt 0603CT-4N3_freq port1 port2 PARAMS: Cpar=0.0447pF Ind=4.3nH
X1 port1 port2 Model2A PARAMS:
+ R1=10.59
+ R2=0.061
+ C= {Cpar}
+ K1=0.0000107
+ K2=0
+ K3= {Ind}
+ K4=0
+ K5=0
+ L=0
+ Is=0
+ a=0
+ L_Z0=0
+ L_EL=0
+ L_F0=0E6
+ PkZ=8201.32256
.ends 0603CT-4N3_freq

*======================================================================
* SPICE Model generated by Coilcraft
* Coilcraft Part Number : 0603CT-4N7
* Inductance = 4.7nH
*======================================================================
* Model Parameters:
*   Valid Frequency Range = 0.001GHz-16GHz
*   Ambient Temperature = 25 degC
*   Inductor Frequency Model
*   Use model for Frequency Domain simulations
*======================================================================
.subckt 0603CT-4N7_freq port1 port2 PARAMS: Cpar=0.0387pF Ind=4.7nH
X1 port1 port2 Model2A PARAMS:
+ R1=10.29
+ R2=0.096
+ C= {Cpar}
+ K1=0.0000116
+ K2=0
+ K3= {Ind}
+ K4=0
+ K5=0
+ L=0
+ Is=0
+ a=0
+ L_Z0=0
+ L_EL=0
+ L_F0=0E6
+ PkZ=10519.5219
.ends 0603CT-4N7_freq

*======================================================================
* SPICE Model generated by Coilcraft
* Coilcraft Part Number : 0603CT-5N1
* Inductance = 5.1nH
*======================================================================
* Model Parameters:
*   Valid Frequency Range = 0.001GHz-16GHz
*   Ambient Temperature = 25 degC
*   Inductor Frequency Model
*   Use model for Frequency Domain simulations
*======================================================================
.subckt 0603CT-5N1_freq port1 port2 PARAMS: Cpar=0.0291pF Ind=5.1nH
X1 port1 port2 Model2A PARAMS:
+ R1=3.65
+ R2=0.04
+ C= {Cpar}
+ K1=0.0000122
+ K2=0
+ K3= {Ind}
+ K4=0
+ K5=0
+ L=0
+ Is=0
+ a=0
+ L_Z0=0
+ L_EL=0
+ L_F0=0E6
+ PkZ=34744.2103
.ends 0603CT-5N1_freq

*======================================================================
* SPICE Model generated by Coilcraft
* Coilcraft Part Number : 0603CT-5N6
* Inductance = 5.6nH
*======================================================================
* Model Parameters:
*   Valid Frequency Range = 0.001GHz-13GHz
*   Ambient Temperature = 25 degC
*   Inductor Frequency Model
*   Use model for Frequency Domain simulations
*======================================================================
.subckt 0603CT-5N6_freq port1 port2 PARAMS: Cpar=0.0341pF Ind=5.6nH
X1 port1 port2 Model2A PARAMS:
+ R1=10.82
+ R2=0.046
+ C= {Cpar}
+ K1=0.0000133
+ K2=0
+ K3= {Ind}
+ K4=0
+ K5=0
+ L=0
+ Is=0
+ a=0
+ L_Z0=0
+ L_EL=0
+ L_F0=0E6
+ PkZ=13413.773
.ends 0603CT-5N6_freq

*======================================================================
* SPICE Model generated by Coilcraft
* Coilcraft Part Number : 0603CT-6N8
* Inductance = 6.8nH
*======================================================================
* Model Parameters:
*   Valid Frequency Range = 0.001GHz-9.7GHz
*   Ambient Temperature = 25 degC
*   Inductor Frequency Model
*   Use model for Frequency Domain simulations
*======================================================================
.subckt 0603CT-6N8_freq port1 port2 PARAMS: Cpar=0.0467pF Ind=6.8nH
X1 port1 port2 Model2A PARAMS:
+ R1=15.02
+ R2=0.064
+ C= {Cpar}
+ K1=0.0000181
+ K2=0
+ K3= {Ind}
+ K4=0
+ K5=0
+ L=0
+ Is=0
+ a=0
+ L_Z0=0
+ L_EL=0
+ L_F0=0E6
+ PkZ=8710.15542
.ends 0603CT-6N8_freq

*======================================================================
* SPICE Model generated by Coilcraft
* Coilcraft Part Number : 0603CT-7N2
* Inductance = 7.2nH
*======================================================================
* Model Parameters:
*   Valid Frequency Range = 0.001GHz-9.7GHz
*   Ambient Temperature = 25 degC
*   Inductor Frequency Model
*   Use model for Frequency Domain simulations
*======================================================================
.subckt 0603CT-7N2_freq port1 port2 PARAMS: Cpar=0.0509pF Ind=7.2nH
X1 port1 port2 Model2A PARAMS:
+ R1=11.02
+ R2=0.038
+ C= {Cpar}
+ K1=0.0000185
+ K2=0
+ K3= {Ind}
+ K4=0
+ K5=0
+ L=0
+ Is=0
+ a=0
+ L_Z0=0
+ L_EL=0
+ L_F0=0E6
+ PkZ=11137.0447
.ends 0603CT-7N2_freq

*======================================================================
* SPICE Model generated by Coilcraft
* Coilcraft Part Number : 0603CT-8N2
* Inductance = 8.2nH
*======================================================================
* Model Parameters:
*   Valid Frequency Range = 0.001GHz-9.7GHz
*   Ambient Temperature = 25 degC
*   Inductor Frequency Model
*   Use model for Frequency Domain simulations
*======================================================================
.subckt 0603CT-8N2_freq port1 port2 PARAMS: Cpar=0.0384pF Ind=8.2nH
X1 port1 port2 Model2A PARAMS:
+ R1=15.82
+ R2=0.06
+ C= {Cpar}
+ K1=0.0000209
+ K2=0
+ K3= {Ind}
+ K4=0
+ K5=0
+ L=0
+ Is=0
+ a=0
+ L_Z0=0
+ L_EL=0
+ L_F0=0E6
+ PkZ=12004.3669
.ends 0603CT-8N2_freq

*======================================================================
* SPICE Model generated by Coilcraft
* Coilcraft Part Number : 0603CT-9N5
* Inductance = 9.5nH
*======================================================================
* Model Parameters:
*   Valid Frequency Range = 0.001GHz-9GHz
*   Ambient Temperature = 25 degC
*   Inductor Frequency Model
*   Use model for Frequency Domain simulations
*======================================================================
.subckt 0603CT-9N5_freq port1 port2 PARAMS: Cpar=0.0432pF Ind=9.5nH
X1 port1 port2 Model2A PARAMS:
+ R1=9.42
+ R2=0.074
+ C= {Cpar}
+ K1=0.0000251
+ K2=0
+ K3= {Ind}
+ K4=0
+ K5=0
+ L=0
+ Is=0
+ a=0
+ L_Z0=0
+ L_EL=0
+ L_F0=0E6
+ PkZ=18888.7724
.ends 0603CT-9N5_freq

*======================================================================
* SPICE Model generated by Coilcraft
* Coilcraft Part Number : 0603CT-10N
* Inductance = 10nH
*======================================================================
* Model Parameters:
*   Valid Frequency Range = 0.001GHz-8.5GHz
*   Ambient Temperature = 25 degC
*   Inductor Frequency Model
*   Use model for Frequency Domain simulations
*======================================================================
.subckt 0603CT-10N_freq port1 port2 PARAMS: Cpar=0.0414pF Ind=10nH
X1 port1 port2 Model2A PARAMS:
+ R1=5.82
+ R2=0.06
+ C= {Cpar}
+ K1=0.0000245
+ K2=0
+ K3= {Ind}
+ K4=0
+ K5=0
+ L=0
+ Is=0
+ a=0
+ L_Z0=0
+ L_EL=0
+ L_F0=0E6
+ PkZ=30245.4746
.ends 0603CT-10N_freq

*======================================================================
* SPICE Model generated by Coilcraft
* Coilcraft Part Number : 0603CT-11N
* Inductance = 11nH
*======================================================================
* Model Parameters:
*   Valid Frequency Range = 0.001GHz-8.3GHz
*   Ambient Temperature = 25 degC
*   Inductor Frequency Model
*   Use model for Frequency Domain simulations
*======================================================================
.subckt 0603CT-11N_freq port1 port2 PARAMS: Cpar=0.0374pF Ind=11nH
X1 port1 port2 Model2A PARAMS:
+ R1=4.7
+ R2=0.088
+ C= {Cpar}
+ K1=0.0000269
+ K2=0
+ K3= {Ind}
+ K4=0
+ K5=0
+ L=0
+ Is=0
+ a=0
+ L_Z0=0
+ L_EL=0
+ L_F0=0E6
+ PkZ=41527.3852
.ends 0603CT-11N_freq

*======================================================================
* SPICE Model generated by Coilcraft
* Coilcraft Part Number : 0603CT-12N
* Inductance = 12nH
*======================================================================
* Model Parameters:
*   Valid Frequency Range = 0.001GHz-8GHz
*   Ambient Temperature = 25 degC
*   Inductor Frequency Model
*   Use model for Frequency Domain simulations
*======================================================================
.subckt 0603CT-12N_freq port1 port2 PARAMS: Cpar=0.0384pF Ind=12nH
X1 port1 port2 Model2A PARAMS:
+ R1=10.1
+ R2=0.104
+ C= {Cpar}
+ K1=0.0000285
+ K2=0
+ K3= {Ind}
+ K4=0
+ K5=0
+ L=0
+ Is=0
+ a=0
+ L_Z0=0
+ L_EL=0
+ L_F0=0E6
+ PkZ=24896.8451
.ends 0603CT-12N_freq

*======================================================================
* SPICE Model generated by Coilcraft
* Coilcraft Part Number : 0603CT-15N
* Inductance = 15nH
*======================================================================
* Model Parameters:
*   Valid Frequency Range = 0.001GHz-7.5GHz
*   Ambient Temperature = 25 degC
*   Inductor Frequency Model
*   Use model for Frequency Domain simulations
*======================================================================
.subckt 0603CT-15N_freq port1 port2 PARAMS: Cpar=0.0364pF Ind=15nH
X1 port1 port2 Model2A PARAMS:
+ R1=12.3
+ R2=0.116
+ C= {Cpar}
+ K1=0.000038
+ K2=0
+ K3= {Ind}
+ K4=0
+ K5=0
+ L=0
+ Is=0
+ a=0
+ L_Z0=0
+ L_EL=0
+ L_F0=0E6
+ PkZ=26701.6389
.ends 0603CT-15N_freq

*======================================================================
* SPICE Model generated by Coilcraft
* Coilcraft Part Number : 0603CT-16N
* Inductance = 16nH
*======================================================================
* Model Parameters:
*   Valid Frequency Range = 0.001GHz-7.3GHz
*   Ambient Temperature = 25 degC
*   Inductor Frequency Model
*   Use model for Frequency Domain simulations
*======================================================================
.subckt 0603CT-16N_freq port1 port2 PARAMS: Cpar=0.0424pF Ind=16nH
X1 port1 port2 Model2A PARAMS:
+ R1=14.1
+ R2=0.14
+ C= {Cpar}
+ K1=0.0000404
+ K2=0
+ K3= {Ind}
+ K4=0
+ K5=0
+ L=0
+ Is=0
+ a=0
+ L_Z0=0
+ L_EL=0
+ L_F0=0E6
+ PkZ=21871.8293
.ends 0603CT-16N_freq

*======================================================================
* SPICE Model generated by Coilcraft
* Coilcraft Part Number : 0603CT-18N
* Inductance = 18nH
*======================================================================
* Model Parameters:
*   Valid Frequency Range = 0.001GHz-7.3GHz
*   Ambient Temperature = 25 degC
*   Inductor Frequency Model
*   Use model for Frequency Domain simulations
*======================================================================
.subckt 0603CT-18N_freq port1 port2 PARAMS: Cpar=0.0364pF Ind=18nH
X1 port1 port2 Model2A PARAMS:
+ R1=14.1
+ R2=0.16
+ C= {Cpar}
+ K1=0.0000452
+ K2=0
+ K3= {Ind}
+ K4=0
+ K5=0
+ L=0
+ Is=0
+ a=0
+ L_Z0=0
+ L_EL=0
+ L_F0=0E6
+ PkZ=28001.0231
.ends 0603CT-18N_freq

*======================================================================
* SPICE Model generated by Coilcraft
* Coilcraft Part Number : 0603CT-20N
* Inductance = 20nH
*======================================================================
* Model Parameters:
*   Valid Frequency Range = 0.001GHz-7.3GHz
*   Ambient Temperature = 25 degC
*   Inductor Frequency Model
*   Use model for Frequency Domain simulations
*======================================================================
.subckt 0603CT-20N_freq port1 port2 PARAMS: Cpar=0.0292pF Ind=20nH
X1 port1 port2 Model2A PARAMS:
+ R1=16.3
+ R2=0.14
+ C= {Cpar}
+ K1=0.000048
+ K2=0
+ K3= {Ind}
+ K4=0
+ K5=0
+ L=0
+ Is=0
+ a=0
+ L_Z0=0
+ L_EL=0
+ L_F0=0E6
+ PkZ=33922.3753
.ends 0603CT-20N_freq

*======================================================================
* SPICE Model generated by Coilcraft
* Coilcraft Part Number : 0603CT-22N
* Inductance = 22nH
*======================================================================
* Model Parameters:
*   Valid Frequency Range = 0.001GHz-6.7GHz
*   Ambient Temperature = 25 degC
*   Inductor Frequency Model
*   Use model for Frequency Domain simulations
*======================================================================
.subckt 0603CT-22N_freq port1 port2 PARAMS: Cpar=0.0332pF Ind=22nH
X1 port1 port2 Model2A PARAMS:
+ R1=16.7
+ R2=0.176
+ C= {Cpar}
+ K1=0.0000576
+ K2=0
+ K3= {Ind}
+ K4=0
+ K5=0
+ L=0
+ Is=0
+ a=0
+ L_Z0=0
+ L_EL=0
+ L_F0=0E6
+ PkZ=31382.4377
.ends 0603CT-22N_freq

*======================================================================
* SPICE Model generated by Coilcraft
* Coilcraft Part Number : 0603CT-24N
* Inductance = 24nH
*======================================================================
* Model Parameters:
*   Valid Frequency Range = 0.001GHz-6.5GHz
*   Ambient Temperature = 25 degC
*   Inductor Frequency Model
*   Use model for Frequency Domain simulations
*======================================================================
.subckt 0603CT-24N_freq port1 port2 PARAMS: Cpar=0.0316pF Ind=24nH
X1 port1 port2 Model2A PARAMS:
+ R1=22.4
+ R2=0.192
+ C= {Cpar}
+ K1=0.0000648
+ K2=0
+ K3= {Ind}
+ K4=0
+ K5=0
+ L=0
+ Is=0
+ a=0
+ L_Z0=0
+ L_EL=0
+ L_F0=0E6
+ PkZ=27803.4399
.ends 0603CT-24N_freq

*======================================================================
* SPICE Model generated by Coilcraft
* Coilcraft Part Number : 0603CT-27N
* Inductance = 27nH
*======================================================================
* Model Parameters:
*   Valid Frequency Range = 0.001GHz-6.5GHz
*   Ambient Temperature = 25 degC
*   Inductor Frequency Model
*   Use model for Frequency Domain simulations
*======================================================================
.subckt 0603CT-27N_freq port1 port2 PARAMS: Cpar=0.025pF Ind=27nH
X1 port1 port2 Model2A PARAMS:
+ R1=20.6
+ R2=0.216
+ C= {Cpar}
+ K1=0.0000728
+ K2=0
+ K3= {Ind}
+ K4=0
+ K5=0
+ L=0
+ Is=0
+ a=0
+ L_Z0=0
+ L_EL=0
+ L_F0=0E6
+ PkZ=41076.8033
.ends 0603CT-27N_freq

*======================================================================
* SPICE Model generated by Coilcraft
* Coilcraft Part Number : 0603CT-30N
* Inductance = 30nH
*======================================================================
* Model Parameters:
*   Valid Frequency Range = 0.001GHz-5.8GHz
*   Ambient Temperature = 25 degC
*   Inductor Frequency Model
*   Use model for Frequency Domain simulations
*======================================================================
.subckt 0603CT-30N_freq port1 port2 PARAMS: Cpar=0.03pF Ind=30nH
X1 port1 port2 Model2A PARAMS:
+ R1=20.68
+ R2=0.264
+ C= {Cpar}
+ K1=0.0000788
+ K2=0
+ K3= {Ind}
+ K4=0
+ K5=0
+ L=0
+ Is=0
+ a=0
+ L_Z0=0
+ L_EL=0
+ L_F0=0E6
+ PkZ=37859.7786
.ends 0603CT-30N_freq

*======================================================================
* SPICE Model generated by Coilcraft
* Coilcraft Part Number : 0603CT-33N
* Inductance = 33nH
*======================================================================
* Model Parameters:
*   Valid Frequency Range = 0.001GHz-5.6GHz
*   Ambient Temperature = 25 degC
*   Inductor Frequency Model
*   Use model for Frequency Domain simulations
*======================================================================
.subckt 0603CT-33N_freq port1 port2 PARAMS: Cpar=0.03pF Ind=33nH
X1 port1 port2 Model2A PARAMS:
+ R1=31.48
+ R2=0.264
+ C= {Cpar}
+ K1=0.0000998
+ K2=0
+ K3= {Ind}
+ K4=0
+ K5=0
+ L=0
+ Is=0
+ a=0
+ L_Z0=0
+ L_EL=0
+ L_F0=0E6
+ PkZ=28527.4687
.ends 0603CT-33N_freq

*======================================================================
* SPICE Model generated by Coilcraft
* Coilcraft Part Number : 0603CT-36N
* Inductance = 36nH
*======================================================================
* Model Parameters:
*   Valid Frequency Range = 0.001GHz-5.6GHz
*   Ambient Temperature = 25 degC
*   Inductor Frequency Model
*   Use model for Frequency Domain simulations
*======================================================================
.subckt 0603CT-36N_freq port1 port2 PARAMS: Cpar=0.027pF Ind=36nH
X1 port1 port2 Model2A PARAMS:
+ R1=37.98
+ R2=0.268
+ C= {Cpar}
+ K1=0.0000958
+ K2=0
+ K3= {Ind}
+ K4=0
+ K5=0
+ L=0
+ Is=0
+ a=0
+ L_Z0=0
+ L_EL=0
+ L_F0=0E6
+ PkZ=29762.3326
.ends 0603CT-36N_freq

*======================================================================
* SPICE Model generated by Coilcraft
* Coilcraft Part Number : 0603CT-39N
* Inductance = 39nH
*======================================================================
* Model Parameters:
*   Valid Frequency Range = 0.001GHz-5.5GHz
*   Ambient Temperature = 25 degC
*   Inductor Frequency Model
*   Use model for Frequency Domain simulations
*======================================================================
.subckt 0603CT-39N_freq port1 port2 PARAMS: Cpar=0.031pF Ind=39nH
X1 port1 port2 Model2A PARAMS:
+ R1=33.48
+ R2=0.32
+ C= {Cpar}
+ K1=0.000107
+ K2=0
+ K3= {Ind}
+ K4=0
+ K5=0
+ L=0
+ Is=0
+ a=0
+ L_Z0=0
+ L_EL=0
+ L_F0=0E6
+ PkZ=30910.8664
.ends 0603CT-39N_freq

*======================================================================
* SPICE Model generated by Coilcraft
* Coilcraft Part Number : 0603CT-43N
* Inductance = 43nH
*======================================================================
* Model Parameters:
*   Valid Frequency Range = 0.001GHz-5.5GHz
*   Ambient Temperature = 25 degC
*   Inductor Frequency Model
*   Use model for Frequency Domain simulations
*======================================================================
.subckt 0603CT-43N_freq port1 port2 PARAMS: Cpar=0.031pF Ind=43nH
X1 port1 port2 Model2A PARAMS:
+ R1=36.08
+ R2=0.352
+ C= {Cpar}
+ K1=0.000128
+ K2=0
+ K3= {Ind}
+ K4=0
+ K5=0
+ L=0
+ Is=0
+ a=0
+ L_Z0=0
+ L_EL=0
+ L_F0=0E6
+ PkZ=31164.721
.ends 0603CT-43N_freq

*======================================================================
* SPICE Model generated by Coilcraft
* Coilcraft Part Number : 0603CT-47N
* Inductance = 47nH
*======================================================================
* Model Parameters:
*   Valid Frequency Range = 0.001GHz-5.4GHz
*   Ambient Temperature = 25 degC
*   Inductor Frequency Model
*   Use model for Frequency Domain simulations
*======================================================================
.subckt 0603CT-47N_freq port1 port2 PARAMS: Cpar=0.0265pF Ind=47nH
X1 port1 port2 Model2A PARAMS:
+ R1=36.16
+ R2=0.44
+ C= {Cpar}
+ K1=0.000122
+ K2=0
+ K3= {Ind}
+ K4=0
+ K5=0
+ L=0
+ Is=0
+ a=0
+ L_Z0=0
+ L_EL=0
+ L_F0=0E6
+ PkZ=40004.0213
.ends 0603CT-47N_freq

*======================================================================
* SPICE Model generated by Coilcraft
* Coilcraft Part Number : 0603CT-51N
* Inductance = 51nH
*======================================================================
* Model Parameters:
*   Valid Frequency Range = 0.001GHz-5.4GHz
*   Ambient Temperature = 25 degC
*   Inductor Frequency Model
*   Use model for Frequency Domain simulations
*======================================================================
.subckt 0603CT-51N_freq port1 port2 PARAMS: Cpar=0.0247pF Ind=51nH
X1 port1 port2 Model2A PARAMS:
+ R1=43.96
+ R2=0.46
+ C= {Cpar}
+ K1=0.000147
+ K2=0
+ K3= {Ind}
+ K4=0
+ K5=0
+ L=0
+ Is=0
+ a=0
+ L_Z0=0
+ L_EL=0
+ L_F0=0E6
+ PkZ=38395.3988
.ends 0603CT-51N_freq

*======================================================================
* SPICE Model generated by Coilcraft
* Coilcraft Part Number : 0603CT-56N
* Inductance = 56nH
*======================================================================
* Model Parameters:
*   Valid Frequency Range = 0.001GHz-5.4GHz
*   Ambient Temperature = 25 degC
*   Inductor Frequency Model
*   Use model for Frequency Domain simulations
*======================================================================
.subckt 0603CT-56N_freq port1 port2 PARAMS: Cpar=0.033pF Ind=56nH
X1 port1 port2 Model2A PARAMS:
+ R1=43.96
+ R2=0.56
+ C= {Cpar}
+ K1=0.000139
+ K2=0
+ K3= {Ind}
+ K4=0
+ K5=0
+ L=0
+ Is=0
+ a=0
+ L_Z0=0
+ L_EL=0
+ L_F0=0E6
+ PkZ=32393.687
.ends 0603CT-56N_freq

*======================================================================
* SPICE Model generated by Coilcraft
* Coilcraft RF Inductor Model
*======================================================================
* Model Parameters:
*   Valid Frequency Range Varies by Inductor
*   Ambient Temperature = 25 degC
*   DC Bias Current = 0 A
*   Frequency Dependent Inductor Model
*======================================================================
.subckt Model2A Lin Lout PARAMS:
+ R1=1
+ R2=1
+ C=1
+ K1=1
+ K3=1
R2 N001 Lin {R2}
R1 Lout N002 {R1}
C1 N002 N001 {C}
G_Rvar1 N001 N003 LAPLACE { V(N001, N003) } {1/K1/(-S*S/4/PI^2)^0.25}
L1 N003 Lout = {K3}
.ends Model2A








.subckt Coilcraft_Inductor Lin Lout
R1 Lout Lin 100Meg
.ends Coilcraft_Inductor
