*======================================================================
* SPICE Model generated by Coilcraft
* Coilcraft Part Number : 0603CS-1N6
* Inductance = 1.6nH
*======================================================================
* Model Parameters:
*   Valid Frequency Range = 0.001GHz-25.3GHz
*   Ambient Temperature = 25 degC
*   Inductor Frequency Model
*   Use model for Frequency Domain simulations
*======================================================================
.subckt 0603CS-1N6_freq port1 port2 PARAMS: Cpar=0.03pF Ind=1.6nH
X1 port1 port2 Model2A PARAMS:
+ R1=2
+ R2=0.001
+ C= {Cpar}
+ K1=0.0000065
+ K2=0
+ K3= {Ind}
+ K4=0
+ K5=0
+ L=0
+ Is=0
+ a=0
+ L_Z0=0
+ L_EL=0
+ L_F0=0E6
+ PkZ=17866.9028
.ends 0603CS-1N6_freq

*======================================================================
* SPICE Model generated by Coilcraft
* Coilcraft Part Number : 0603CS-1N8
* Inductance = 1.8nH
*======================================================================
* Model Parameters:
*   Valid Frequency Range = 0.001GHz-22.1GHz
*   Ambient Temperature = 25 degC
*   Inductor Frequency Model
*   Use model for Frequency Domain simulations
*======================================================================
.subckt 0603CS-1N8_freq port1 port2 PARAMS: Cpar=0.035pF Ind=1.8nH
X1 port1 port2 Model2A PARAMS:
+ R1=2
+ R2=0.001
+ C= {Cpar}
+ K1=0.00001
+ K2=0
+ K3= {Ind}
+ K4=0
+ K5=0
+ L=0
+ Is=0
+ a=0
+ L_Z0=0
+ L_EL=0
+ L_F0=0E6
+ PkZ=15055.9144
.ends 0603CS-1N8_freq

*======================================================================
* SPICE Model generated by Coilcraft
* Coilcraft Part Number : 0603CS-2N2
* Inductance = 2.2nH
*======================================================================
* Model Parameters:
*   Valid Frequency Range = 0.001GHz-23GHz
*   Ambient Temperature = 25 degC
*   Inductor Frequency Model
*   Use model for Frequency Domain simulations
*======================================================================
.subckt 0603CS-2N2_freq port1 port2 PARAMS: Cpar=0.024pF Ind=2.2nH
X1 port1 port2 Model2A PARAMS:
+ R1=23
+ R2=0.07
+ C= {Cpar}
+ K1=0.00001122
+ K2=0
+ K3= {Ind}
+ K4=0
+ K5=0
+ L=0
+ Is=0
+ a=0
+ L_Z0=0
+ L_EL=0
+ L_F0=0E6
+ PkZ=3727.97839
.ends 0603CS-2N2_freq

*======================================================================
* SPICE Model generated by Coilcraft
* Coilcraft Part Number : 0603CS-3N3
* Inductance = 3.3nH
*======================================================================
* Model Parameters:
*   Valid Frequency Range = 0.001GHz-17.1GHz
*   Ambient Temperature = 25 degC
*   Inductor Frequency Model
*   Use model for Frequency Domain simulations
*======================================================================
.subckt 0603CS-3N3_freq port1 port2 PARAMS: Cpar=0.032pF Ind=3.3nH
X1 port1 port2 Model2A PARAMS:
+ R1=12
+ R2=0.002
+ C= {Cpar}
+ K1=0.0000089
+ K2=0
+ K3= {Ind}
+ K4=0
+ K5=0
+ L=0
+ Is=0
+ a=0
+ L_Z0=0
+ L_EL=0
+ L_F0=0E6
+ PkZ=7873.1111
.ends 0603CS-3N3_freq

*======================================================================
* SPICE Model generated by Coilcraft
* Coilcraft Part Number : 0603CS-3N6
* Inductance = 3.6nH
*======================================================================
* Model Parameters:
*   Valid Frequency Range = 0.001GHz-14.6GHz
*   Ambient Temperature = 25 degC
*   Inductor Frequency Model
*   Use model for Frequency Domain simulations
*======================================================================
.subckt 0603CS-3N6_freq port1 port2 PARAMS: Cpar=0.04pF Ind=3.6nH
X1 port1 port2 Model2A PARAMS:
+ R1=9
+ R2=0.002
+ C= {Cpar}
+ K1=0.0000125
+ K2=0
+ K3= {Ind}
+ K4=0
+ K5=0
+ L=0
+ Is=0
+ a=0
+ L_Z0=0
+ L_EL=0
+ L_F0=0E6
+ PkZ=8625.03368
.ends 0603CS-3N6_freq

*======================================================================
* SPICE Model generated by Coilcraft
* Coilcraft Part Number : 0603CS-3N9
* Inductance = 3.9nH
*======================================================================
* Model Parameters:
*   Valid Frequency Range = 0.001GHz-13.7GHz
*   Ambient Temperature = 25 degC
*   Inductor Frequency Model
*   Use model for Frequency Domain simulations
*======================================================================
.subckt 0603CS-3N9_freq port1 port2 PARAMS: Cpar=0.042pF Ind=3.9nH
X1 port1 port2 Model2A PARAMS:
+ R1=9
+ R2=0.002
+ C= {Cpar}
+ K1=0.000014
+ K2=0
+ K3= {Ind}
+ K4=0
+ K5=0
+ L=0
+ Is=0
+ a=0
+ L_Z0=0
+ L_EL=0
+ L_F0=0E6
+ PkZ=8796.23899
.ends 0603CS-3N9_freq

*======================================================================
* SPICE Model generated by Coilcraft
* Coilcraft Part Number : 0603CS-4N3
* Inductance = 4.3nH
*======================================================================
* Model Parameters:
*   Valid Frequency Range = 0.001GHz-12.9GHz
*   Ambient Temperature = 25 degC
*   Inductor Frequency Model
*   Use model for Frequency Domain simulations
*======================================================================
.subckt 0603CS-4N3_freq port1 port2 PARAMS: Cpar=0.043pF Ind=4.3nH
X1 port1 port2 Model2A PARAMS:
+ R1=9
+ R2=0.003
+ C= {Cpar}
+ K1=0.0000131
+ K2=0
+ K3= {Ind}
+ K4=0
+ K5=0
+ L=0
+ Is=0
+ a=0
+ L_Z0=0
+ L_EL=0
+ L_F0=0E6
+ PkZ=9603.44677
.ends 0603CS-4N3_freq

*======================================================================
* SPICE Model generated by Coilcraft
* Coilcraft Part Number : 0603CS-4N7
* Inductance = 4.7nH
*======================================================================
* Model Parameters:
*   Valid Frequency Range = 0.001GHz-12.5GHz
*   Ambient Temperature = 25 degC
*   Inductor Frequency Model
*   Use model for Frequency Domain simulations
*======================================================================
.subckt 0603CS-4N7_freq port1 port2 PARAMS: Cpar=0.042pF Ind=4.7nH
X1 port1 port2 Model2A PARAMS:
+ R1=10
+ R2=0.003
+ C= {Cpar}
+ K1=0.0000199
+ K2=0
+ K3= {Ind}
+ K4=0
+ K5=0
+ L=0
+ Is=0
+ a=0
+ L_Z0=0
+ L_EL=0
+ L_F0=0E6
+ PkZ=9238.9018
.ends 0603CS-4N7_freq

*======================================================================
* SPICE Model generated by Coilcraft
* Coilcraft Part Number : 0603CS-5N1
* Inductance = 5.1nH
*======================================================================
* Model Parameters:
*   Valid Frequency Range = 0.001GHz-10.7GHz
*   Ambient Temperature = 25 degC
*   Inductor Frequency Model
*   Use model for Frequency Domain simulations
*======================================================================
.subckt 0603CS-5N1_freq port1 port2 PARAMS: Cpar=0.053pF Ind=5.1nH
X1 port1 port2 Model2A PARAMS:
+ R1=12
+ R2=0.004
+ C= {Cpar}
+ K1=0.0000208
+ K2=0
+ K3= {Ind}
+ K4=0
+ K5=0
+ L=0
+ Is=0
+ a=0
+ L_Z0=0
+ L_EL=0
+ L_F0=0E6
+ PkZ=6855.83845
.ends 0603CS-5N1_freq

*======================================================================
* SPICE Model generated by Coilcraft
* Coilcraft Part Number : 0603CS-5N6
* Inductance = 5.6nH
*======================================================================
* Model Parameters:
*   Valid Frequency Range = 0.001GHz-10.6GHz
*   Ambient Temperature = 25 degC
*   Inductor Frequency Model
*   Use model for Frequency Domain simulations
*======================================================================
.subckt 0603CS-5N6_freq port1 port2 PARAMS: Cpar=0.029pF Ind=5.6nH
X1 port1 port2 Model2A PARAMS:
+ R1=5
+ R2=0.075
+ C= {Cpar}
+ K1=0.0000162
+ K2=0
+ K3= {Ind}
+ K4=0
+ K5=0
+ L=0
+ Is=0
+ a=0
+ L_Z0=0
+ L_EL=0
+ L_F0=0E6
+ PkZ=28356.2809
.ends 0603CS-5N6_freq

*======================================================================
* SPICE Model generated by Coilcraft
* Coilcraft Part Number : 0603CS-6N8
* Inductance = 6.8nH
*======================================================================
* Model Parameters:
*   Valid Frequency Range = 0.001GHz-10.5GHz
*   Ambient Temperature = 25 degC
*   Inductor Frequency Model
*   Use model for Frequency Domain simulations
*======================================================================
.subckt 0603CS-6N8_freq port1 port2 PARAMS: Cpar=0.041pF Ind=6.8nH
X1 port1 port2 Model2A PARAMS:
+ R1=11
+ R2=0.005
+ C= {Cpar}
+ K1=0.0000189
+ K2=0
+ K3= {Ind}
+ K4=0
+ K5=0
+ L=0
+ Is=0
+ a=0
+ L_Z0=0
+ L_EL=0
+ L_F0=0E6
+ PkZ=12916.5467
.ends 0603CS-6N8_freq

*======================================================================
* SPICE Model generated by Coilcraft
* Coilcraft Part Number : 0603CS-7N5
* Inductance = 7.5nH
*======================================================================
* Model Parameters:
*   Valid Frequency Range = 0.001GHz-9.6GHz
*   Ambient Temperature = 25 degC
*   Inductor Frequency Model
*   Use model for Frequency Domain simulations
*======================================================================
.subckt 0603CS-7N5_freq port1 port2 PARAMS: Cpar=0.045pF Ind=7.5nH
X1 port1 port2 Model2A PARAMS:
+ R1=12
+ R2=0.006
+ C= {Cpar}
+ K1=0.0000204
+ K2=0
+ K3= {Ind}
+ K4=0
+ K5=0
+ L=0
+ Is=0
+ a=0
+ L_Z0=0
+ L_EL=0
+ L_F0=0E6
+ PkZ=11996.7858
.ends 0603CS-7N5_freq

*======================================================================
* SPICE Model generated by Coilcraft
* Coilcraft Part Number : 0603CS-8N2
* Inductance = 8nH
*======================================================================
* Model Parameters:
*   Valid Frequency Range = 0.001GHz-8.1GHz
*   Ambient Temperature = 25 degC
*   Inductor Frequency Model
*   Use model for Frequency Domain simulations
*======================================================================
.subckt 0603CS-8N2_freq port1 port2 PARAMS: Cpar=0.059pF Ind=8nH
X1 port1 port2 Model2A PARAMS:
+ R1=16
+ R2=0.008
+ C= {Cpar}
+ K1=0.0000218
+ K2=0
+ K3= {Ind}
+ K4=0
+ K5=0
+ L=0
+ Is=0
+ a=0
+ L_Z0=0
+ L_EL=0
+ L_F0=0E6
+ PkZ=7596.77836
.ends 0603CS-8N2_freq

*======================================================================
* SPICE Model generated by Coilcraft
* Coilcraft Part Number : 0603CS-8N7
* Inductance = 8.7nH
*======================================================================
* Model Parameters:
*   Valid Frequency Range = 0.001GHz-7.2GHz
*   Ambient Temperature = 25 degC
*   Inductor Frequency Model
*   Use model for Frequency Domain simulations
*======================================================================
.subckt 0603CS-8N7_freq port1 port2 PARAMS: Cpar=0.069pF Ind=8.7nH
X1 port1 port2 Model2A PARAMS:
+ R1=5
+ R2=0.011
+ C= {Cpar}
+ K1=0.000024
+ K2=0
+ K3= {Ind}
+ K4=0
+ K5=0
+ L=0
+ Is=0
+ a=0
+ L_Z0=0
+ L_EL=0
+ L_F0=0E6
+ PkZ=18185.1037
.ends 0603CS-8N7_freq

*======================================================================
* SPICE Model generated by Coilcraft
* Coilcraft Part Number : 0603CS-9N5
* Inductance = 9.5nH
*======================================================================
* Model Parameters:
*   Valid Frequency Range = 0.001GHz-9.3GHz
*   Ambient Temperature = 25 degC
*   Inductor Frequency Model
*   Use model for Frequency Domain simulations
*======================================================================
.subckt 0603CS-9N5_freq port1 port2 PARAMS: Cpar=0.038pF Ind=9.5nH
X1 port1 port2 Model2A PARAMS:
+ R1=10
+ R2=0.011
+ C= {Cpar}
+ K1=0.0000296
+ K2=0
+ K3= {Ind}
+ K4=0
+ K5=0
+ L=0
+ Is=0
+ a=0
+ L_Z0=0
+ L_EL=0
+ L_F0=0E6
+ PkZ=19675.1782
.ends 0603CS-9N5_freq

*======================================================================
* SPICE Model generated by Coilcraft
* Coilcraft Part Number : 0603CS-10N
* Inductance = 10nH
*======================================================================
* Model Parameters:
*   Valid Frequency Range = 0.001GHz-8.5GHz
*   Ambient Temperature = 25 degC
*   Inductor Frequency Model
*   Use model for Frequency Domain simulations
*======================================================================
.subckt 0603CS-10N_freq port1 port2 PARAMS: Cpar=0.043pF Ind=10nH
X1 port1 port2 Model2A PARAMS:
+ R1=35
+ R2=0.01
+ C= {Cpar}
+ K1=0.0000264
+ K2=0
+ K3= {Ind}
+ K4=0
+ K5=0
+ L=0
+ Is=0
+ a=0
+ L_Z0=0
+ L_EL=0
+ L_F0=0E6
+ PkZ=6249.13152
.ends 0603CS-10N_freq

*======================================================================
* SPICE Model generated by Coilcraft
* Coilcraft Part Number : 0603CS-11N
* Inductance = 11nH
*======================================================================
* Model Parameters:
*   Valid Frequency Range = 0.001GHz-7.8GHz
*   Ambient Temperature = 25 degC
*   Inductor Frequency Model
*   Use model for Frequency Domain simulations
*======================================================================
.subckt 0603CS-11N_freq port1 port2 PARAMS: Cpar=0.046pF Ind=11nH
X1 port1 port2 Model2A PARAMS:
+ R1=25
+ R2=0.013
+ C= {Cpar}
+ K1=0.0000288
+ K2=0
+ K3= {Ind}
+ K4=0
+ K5=0
+ L=0
+ Is=0
+ a=0
+ L_Z0=0
+ L_EL=0
+ L_F0=0E6
+ PkZ=8731.7337
.ends 0603CS-11N_freq

*======================================================================
* SPICE Model generated by Coilcraft
* Coilcraft Part Number : 0603CS-12N
* Inductance = 12nH
*======================================================================
* Model Parameters:
*   Valid Frequency Range = 0.001GHz-6.7GHz
*   Ambient Temperature = 25 degC
*   Inductor Frequency Model
*   Use model for Frequency Domain simulations
*======================================================================
.subckt 0603CS-12N_freq port1 port2 PARAMS: Cpar=0.058pF Ind=12nH
X1 port1 port2 Model2A PARAMS:
+ R1=9
+ R2=0.013
+ C= {Cpar}
+ K1=0.000032
+ K2=0
+ K3= {Ind}
+ K4=0
+ K5=0
+ L=0
+ Is=0
+ a=0
+ L_Z0=0
+ L_EL=0
+ L_F0=0E6
+ PkZ=18017.5791
.ends 0603CS-12N_freq

*======================================================================
* SPICE Model generated by Coilcraft
* Coilcraft Part Number : 0603CS-15N
* Inductance = 15nH
*======================================================================
* Model Parameters:
*   Valid Frequency Range = 0.001GHz-6.5GHz
*   Ambient Temperature = 25 degC
*   Inductor Frequency Model
*   Use model for Frequency Domain simulations
*======================================================================
.subckt 0603CS-15N_freq port1 port2 PARAMS: Cpar=0.049pF Ind=15nH
X1 port1 port2 Model2A PARAMS:
+ R1=10
+ R2=0.04
+ C= {Cpar}
+ K1=0.000036
+ K2=0
+ K3= {Ind}
+ K4=0
+ K5=0
+ L=0
+ Is=0
+ a=0
+ L_Z0=0
+ L_EL=0
+ L_F0=0E6
+ PkZ=23998.2497
.ends 0603CS-15N_freq

*======================================================================
* SPICE Model generated by Coilcraft
* Coilcraft Part Number : 0603CS-16N
* Inductance = 16nH
*======================================================================
* Model Parameters:
*   Valid Frequency Range = 0.001GHz-6.2GHz
*   Ambient Temperature = 25 degC
*   Inductor Frequency Model
*   Use model for Frequency Domain simulations
*======================================================================
.subckt 0603CS-16N_freq port1 port2 PARAMS: Cpar=0.05pF Ind=16nH
X1 port1 port2 Model2A PARAMS:
+ R1=11
+ R2=0.05
+ C= {Cpar}
+ K1=0.000038
+ K2=0
+ K3= {Ind}
+ K4=0
+ K5=0
+ L=0
+ Is=0
+ a=0
+ L_Z0=0
+ L_EL=0
+ L_F0=0E6
+ PkZ=23108.5682
.ends 0603CS-16N_freq

*======================================================================
* SPICE Model generated by Coilcraft
* Coilcraft Part Number : 0603CS-18N
* Inductance = 18nH
*======================================================================
* Model Parameters:
*   Valid Frequency Range = 0.001GHz-5.4GHz
*   Ambient Temperature = 25 degC
*   Inductor Frequency Model
*   Use model for Frequency Domain simulations
*======================================================================
.subckt 0603CS-18N_freq port1 port2 PARAMS: Cpar=0.071pF Ind=18nH
X1 port1 port2 Model2A PARAMS:
+ R1=11
+ R2=0.05
+ C= {Cpar}
+ K1=0.000041
+ K2=0
+ K3= {Ind}
+ K4=0
+ K5=0
+ L=0
+ Is=0
+ a=0
+ L_Z0=0
+ L_EL=0
+ L_F0=0E6
+ PkZ=18461.8832
.ends 0603CS-18N_freq

*======================================================================
* SPICE Model generated by Coilcraft
* Coilcraft Part Number : 0603CS-22N
* Inductance = 21.9nH
*======================================================================
* Model Parameters:
*   Valid Frequency Range = 0.001GHz-5.6GHz
*   Ambient Temperature = 25 degC
*   Inductor Frequency Model
*   Use model for Frequency Domain simulations
*======================================================================
.subckt 0603CS-22N_freq port1 port2 PARAMS: Cpar=0.054pF Ind=21.9nH
X1 port1 port2 Model2A PARAMS:
+ R1=13
+ R2=0.05
+ C= {Cpar}
+ K1=0.000048
+ K2=0
+ K3= {Ind}
+ K4=0
+ K5=0
+ L=0
+ Is=0
+ a=0
+ L_Z0=0
+ L_EL=0
+ L_F0=0E6
+ PkZ=24939.1445
.ends 0603CS-22N_freq

*======================================================================
* SPICE Model generated by Coilcraft
* Coilcraft Part Number : 0603CS-23N
* Inductance = 23nH
*======================================================================
* Model Parameters:
*   Valid Frequency Range = 0.001GHz-5.5GHz
*   Ambient Temperature = 25 degC
*   Inductor Frequency Model
*   Use model for Frequency Domain simulations
*======================================================================
.subckt 0603CS-23N_freq port1 port2 PARAMS: Cpar=0.054pF Ind=23nH
X1 port1 port2 Model2A PARAMS:
+ R1=18
+ R2=0.05
+ C= {Cpar}
+ K1=0.0000491
+ K2=0
+ K3= {Ind}
+ K4=0
+ K5=0
+ L=0
+ Is=0
+ a=0
+ L_Z0=0
+ L_EL=0
+ L_F0=0E6
+ PkZ=20004.8084
.ends 0603CS-23N_freq

*======================================================================
* SPICE Model generated by Coilcraft
* Coilcraft Part Number : 0603CS-24N
* Inductance = 24nH
*======================================================================
* Model Parameters:
*   Valid Frequency Range = 0.001GHz-4.8GHz
*   Ambient Temperature = 25 degC
*   Inductor Frequency Model
*   Use model for Frequency Domain simulations
*======================================================================
.subckt 0603CS-24N_freq port1 port2 PARAMS: Cpar=0.068pF Ind=24nH
X1 port1 port2 Model2A PARAMS:
+ R1=15
+ R2=0.04
+ C= {Cpar}
+ K1=0.0000503
+ K2=0
+ K3= {Ind}
+ K4=0
+ K5=0
+ L=0
+ Is=0
+ a=0
+ L_Z0=0
+ L_EL=0
+ L_F0=0E6
+ PkZ=19444.6247
.ends 0603CS-24N_freq

*======================================================================
* SPICE Model generated by Coilcraft
* Coilcraft Part Number : 0603CS-27N
* Inductance = 27nH
*======================================================================
* Model Parameters:
*   Valid Frequency Range = 0.001GHz-5.3GHz
*   Ambient Temperature = 25 degC
*   Inductor Frequency Model
*   Use model for Frequency Domain simulations
*======================================================================
.subckt 0603CS-27N_freq port1 port2 PARAMS: Cpar=0.049pF Ind=27nH
X1 port1 port2 Model2A PARAMS:
+ R1=17
+ R2=0.03
+ C= {Cpar}
+ K1=0.0000575
+ K2=0
+ K3= {Ind}
+ K4=0
+ K5=0
+ L=0
+ Is=0
+ a=0
+ L_Z0=0
+ L_EL=0
+ L_F0=0E6
+ PkZ=26494.1805
.ends 0603CS-27N_freq

*======================================================================
* SPICE Model generated by Coilcraft
* Coilcraft Part Number : 0603CS-30N
* Inductance = 30nH
*======================================================================
* Model Parameters:
*   Valid Frequency Range = 0.001GHz-4.5GHz
*   Ambient Temperature = 25 degC
*   Inductor Frequency Model
*   Use model for Frequency Domain simulations
*======================================================================
.subckt 0603CS-30N_freq port1 port2 PARAMS: Cpar=0.062pF Ind=30nH
X1 port1 port2 Model2A PARAMS:
+ R1=19
+ R2=0.02
+ C= {Cpar}
+ K1=0.0000613
+ K2=0
+ K3= {Ind}
+ K4=0
+ K5=0
+ L=0
+ Is=0
+ a=0
+ L_Z0=0
+ L_EL=0
+ L_F0=0E6
+ PkZ=21301.7949
.ends 0603CS-30N_freq

*======================================================================
* SPICE Model generated by Coilcraft
* Coilcraft Part Number : 0603CS-33N
* Inductance = 33nH
*======================================================================
* Model Parameters:
*   Valid Frequency Range = 0.001GHz-3.7GHz
*   Ambient Temperature = 25 degC
*   Inductor Frequency Model
*   Use model for Frequency Domain simulations
*======================================================================
.subckt 0603CS-33N_freq port1 port2 PARAMS: Cpar=0.081pF Ind=33nH
X1 port1 port2 Model2A PARAMS:
+ R1=16
+ R2=0.01
+ C= {Cpar}
+ K1=0.00008
+ K2=0
+ K3= {Ind}
+ K4=0
+ K5=0
+ L=0
+ Is=0
+ a=0
+ L_Z0=0
+ L_EL=0
+ L_F0=0E6
+ PkZ=19939.945
.ends 0603CS-33N_freq

*======================================================================
* SPICE Model generated by Coilcraft
* Coilcraft Part Number : 0603CS-36N
* Inductance = 35.7nH
*======================================================================
* Model Parameters:
*   Valid Frequency Range = 0.001GHz-4.2GHz
*   Ambient Temperature = 25 degC
*   Inductor Frequency Model
*   Use model for Frequency Domain simulations
*======================================================================
.subckt 0603CS-36N_freq port1 port2 PARAMS: Cpar=0.059pF Ind=35.7nH
X1 port1 port2 Model2A PARAMS:
+ R1=23
+ R2=0.01
+ C= {Cpar}
+ K1=0.0000722
+ K2=0
+ K3= {Ind}
+ K4=0
+ K5=0
+ L=0
+ Is=0
+ a=0
+ L_Z0=0
+ L_EL=0
+ L_F0=0E6
+ PkZ=22213.568
.ends 0603CS-36N_freq

*======================================================================
* SPICE Model generated by Coilcraft
* Coilcraft Part Number : 0603CS-39N
* Inductance = 39nH
*======================================================================
* Model Parameters:
*   Valid Frequency Range = 0.001GHz-3.8GHz
*   Ambient Temperature = 25 degC
*   Inductor Frequency Model
*   Use model for Frequency Domain simulations
*======================================================================
.subckt 0603CS-39N_freq port1 port2 PARAMS: Cpar=0.066pF Ind=39nH
X1 port1 port2 Model2A PARAMS:
+ R1=17
+ R2=0.01
+ C= {Cpar}
+ K1=0.00009
+ K2=0
+ K3= {Ind}
+ K4=0
+ K5=0
+ L=0
+ Is=0
+ a=0
+ L_Z0=0
+ L_EL=0
+ L_F0=0E6
+ PkZ=26816.9115
.ends 0603CS-39N_freq

*======================================================================
* SPICE Model generated by Coilcraft
* Coilcraft Part Number : 0603CS-43N
* Inductance = 43nH
*======================================================================
* Model Parameters:
*   Valid Frequency Range = 0.001GHz-4GHz
*   Ambient Temperature = 25 degC
*   Inductor Frequency Model
*   Use model for Frequency Domain simulations
*======================================================================
.subckt 0603CS-43N_freq port1 port2 PARAMS: Cpar=0.055pF Ind=43nH
X1 port1 port2 Model2A PARAMS:
+ R1=27
+ R2=0.01
+ C= {Cpar}
+ K1=0.000095
+ K2=0
+ K3= {Ind}
+ K4=0
+ K5=0
+ L=0
+ Is=0
+ a=0
+ L_Z0=0
+ L_EL=0
+ L_F0=0E6
+ PkZ=24116.0727
.ends 0603CS-43N_freq

*======================================================================
* SPICE Model generated by Coilcraft
* Coilcraft Part Number : 0603CS-47N
* Inductance = 47nH
*======================================================================
* Model Parameters:
*   Valid Frequency Range = 0.001GHz-3.4GHz
*   Ambient Temperature = 25 degC
*   Inductor Frequency Model
*   Use model for Frequency Domain simulations
*======================================================================
.subckt 0603CS-47N_freq port1 port2 PARAMS: Cpar=0.071pF Ind=47nH
X1 port1 port2 Model2A PARAMS:
+ R1=17
+ R2=0.01
+ C= {Cpar}
+ K1=0.000103
+ K2=0
+ K3= {Ind}
+ K4=0
+ K5=0
+ L=0
+ Is=0
+ a=0
+ L_Z0=0
+ L_EL=0
+ L_F0=0E6
+ PkZ=29550.9816
.ends 0603CS-47N_freq

*======================================================================
* SPICE Model generated by Coilcraft
* Coilcraft Part Number : 0603CS-51N
* Inductance = 51nH
*======================================================================
* Model Parameters:
*   Valid Frequency Range = 0.001GHz-3.8GHz
*   Ambient Temperature = 25 degC
*   Inductor Frequency Model
*   Use model for Frequency Domain simulations
*======================================================================
.subckt 0603CS-51N_freq port1 port2 PARAMS: Cpar=0.05pF Ind=51nH
X1 port1 port2 Model2A PARAMS:
+ R1=30
+ R2=0.01
+ C= {Cpar}
+ K1=0.000117
+ K2=0
+ K3= {Ind}
+ K4=0
+ K5=0
+ L=0
+ Is=0
+ a=0
+ L_Z0=0
+ L_EL=0
+ L_F0=0E6
+ PkZ=27905.8224
.ends 0603CS-51N_freq

*======================================================================
* SPICE Model generated by Coilcraft
* Coilcraft Part Number : 0603CS-56N
* Inductance = 56nH
*======================================================================
* Model Parameters:
*   Valid Frequency Range = 0.001GHz-3.2GHz
*   Ambient Temperature = 25 degC
*   Inductor Frequency Model
*   Use model for Frequency Domain simulations
*======================================================================
.subckt 0603CS-56N_freq port1 port2 PARAMS: Cpar=0.065pF Ind=56nH
X1 port1 port2 Model2A PARAMS:
+ R1=17
+ R2=0.01
+ C= {Cpar}
+ K1=0.000118
+ K2=0
+ K3= {Ind}
+ K4=0
+ K5=0
+ L=0
+ Is=0
+ a=0
+ L_Z0=0
+ L_EL=0
+ L_F0=0E6
+ PkZ=37366.8048
.ends 0603CS-56N_freq

*======================================================================
* SPICE Model generated by Coilcraft
* Coilcraft Part Number : 0603CS-68N
* Inductance = 67nH
*======================================================================
* Model Parameters:
*   Valid Frequency Range = 0.001GHz-2.8GHz
*   Ambient Temperature = 25 degC
*   Inductor Frequency Model
*   Use model for Frequency Domain simulations
*======================================================================
.subckt 0603CS-68N_freq port1 port2 PARAMS: Cpar=0.073pF Ind=67nH
X1 port1 port2 Model2A PARAMS:
+ R1=17
+ R2=0.01
+ C= {Cpar}
+ K1=0.000145
+ K2=0
+ K3= {Ind}
+ K4=0
+ K5=0
+ L=0
+ Is=0
+ a=0
+ L_Z0=0
+ L_EL=0
+ L_F0=0E6
+ PkZ=38381.4939
.ends 0603CS-68N_freq

*======================================================================
* SPICE Model generated by Coilcraft
* Coilcraft Part Number : 0603CS-72N
* Inductance = 72nH
*======================================================================
* Model Parameters:
*   Valid Frequency Range = 0.001GHz-3.1GHz
*   Ambient Temperature = 25 degC
*   Inductor Frequency Model
*   Use model for Frequency Domain simulations
*======================================================================
.subckt 0603CS-72N_freq port1 port2 PARAMS: Cpar=0.054pF Ind=72nH
X1 port1 port2 Model2A PARAMS:
+ R1=20
+ R2=0.01
+ C= {Cpar}
+ K1=0.00016
+ K2=0
+ K3= {Ind}
+ K4=0
+ K5=0
+ L=0
+ Is=0
+ a=0
+ L_Z0=0
+ L_EL=0
+ L_F0=0E6
+ PkZ=47485.7856
.ends 0603CS-72N_freq

*======================================================================
* SPICE Model generated by Coilcraft
* Coilcraft Part Number : 0603CS-82N
* Inductance = 81nH
*======================================================================
* Model Parameters:
*   Valid Frequency Range = 0.001GHz-2.9GHz
*   Ambient Temperature = 25 degC
*   Inductor Frequency Model
*   Use model for Frequency Domain simulations
*======================================================================
.subckt 0603CS-82N_freq port1 port2 PARAMS: Cpar=0.056pF Ind=81nH
X1 port1 port2 Model2A PARAMS:
+ R1=20
+ R2=0.01
+ C= {Cpar}
+ K1=0.000165
+ K2=0
+ K3= {Ind}
+ K4=0
+ K5=0
+ L=0
+ Is=0
+ a=0
+ L_Z0=0
+ L_EL=0
+ L_F0=0E6
+ PkZ=51627.8353
.ends 0603CS-82N_freq

*======================================================================
* SPICE Model generated by Coilcraft
* Coilcraft Part Number : 0603CS-R10
* Inductance = 100nH
*======================================================================
* Model Parameters:
*   Valid Frequency Range = 0.001GHz-2.5GHz
*   Ambient Temperature = 25 degC
*   Inductor Frequency Model
*   Use model for Frequency Domain simulations
*======================================================================
.subckt 0603CS-R10_freq port1 port2 PARAMS: Cpar=0.06pF Ind=100nH
X1 port1 port2 Model2A PARAMS:
+ R1=25
+ R2=0.01
+ C= {Cpar}
+ K1=0.000234
+ K2=0
+ K3= {Ind}
+ K4=0
+ K5=0
+ L=0
+ Is=0
+ a=0
+ L_Z0=0
+ L_EL=0
+ L_F0=0E6
+ PkZ=46817.7823
.ends 0603CS-R10_freq

*======================================================================
* SPICE Model generated by Coilcraft
* Coilcraft Part Number : 0603CS-R11
* Inductance = 109nH
*======================================================================
* Model Parameters:
*   Valid Frequency Range = 0.001GHz-2.4GHz
*   Ambient Temperature = 25 degC
*   Inductor Frequency Model
*   Use model for Frequency Domain simulations
*======================================================================
.subckt 0603CS-R11_freq port1 port2 PARAMS: Cpar=0.06pF Ind=109nH
X1 port1 port2 Model2A PARAMS:
+ R1=21
+ R2=0.01
+ C= {Cpar}
+ K1=0.000257
+ K2=0
+ K3= {Ind}
+ K4=0
+ K5=0
+ L=0
+ Is=0
+ a=0
+ L_Z0=0
+ L_EL=0
+ L_F0=0E6
+ PkZ=56076.7824
.ends 0603CS-R11_freq

*======================================================================
* SPICE Model generated by Coilcraft
* Coilcraft Part Number : 0603CS-R12
* Inductance = 119nH
*======================================================================
* Model Parameters:
*   Valid Frequency Range = 0.001GHz-2.3GHz
*   Ambient Temperature = 25 degC
*   Inductor Frequency Model
*   Use model for Frequency Domain simulations