*======================================================================
* SPICE Model generated by Coilcraft
* Coilcraft Part Number : 0603HP-1N8
* Inductance = 1.8nH
*======================================================================
* Model Parameters:
*   Valid Frequency Range = 0.001GHz-25GHz
*   Ambient Temperature = 25 degC
*   Inductor Frequency Model
*   Use model for Frequency Domain simulations
*======================================================================
.subckt 0603HP-1N8_freq port1 port2 PARAMS: Cpar=0.014pF Ind=1.8nH
X1 port1 port2 Model2A PARAMS:
+ R1=25
+ R2=0.033
+ C= {Cpar}
+ K1=0.0000065
+ K2=0
+ K3= {Ind}
+ K4=0
+ K5=0
+ L=0
+ Is=0
+ a=0
+ L_Z0=0
+ L_EL=0
+ L_F0=0E6
+ PkZ=4927.29459
.ends 0603HP-1N8_freq

*======================================================================
* SPICE Model generated by Coilcraft
* Coilcraft Part Number : 0603HP-2N2
* Inductance = 2.2nH
*======================================================================
* Model Parameters:
*   Valid Frequency Range = 0.001GHz-25GHz
*   Ambient Temperature = 25 degC
*   Inductor Frequency Model
*   Use model for Frequency Domain simulations
*======================================================================
.subckt 0603HP-2N2_freq port1 port2 PARAMS: Cpar=0.014pF Ind=2.2nH
X1 port1 port2 Model2A PARAMS:
+ R1=25
+ R2=0.18
+ C= {Cpar}
+ K1=0.0000114
+ K2=0
+ K3= {Ind}
+ K4=0
+ K5=0
+ L=0
+ Is=0
+ a=0
+ L_Z0=0
+ L_EL=0
+ L_F0=0E6
+ PkZ=5846.96012
.ends 0603HP-2N2_freq

*======================================================================
* SPICE Model generated by Coilcraft
* Coilcraft Part Number : 0603HP-3N3
* Inductance = 3.3nH
*======================================================================
* Model Parameters:
*   Valid Frequency Range = 0.001GHz-20GHz
*   Ambient Temperature = 25 degC
*   Inductor Frequency Model
*   Use model for Frequency Domain simulations
*======================================================================
.subckt 0603HP-3N3_freq port1 port2 PARAMS: Cpar=0.047pF Ind=3.3nH
X1 port1 port2 Model2A PARAMS:
+ R1=5
+ R2=0.024
+ C= {Cpar}
+ K1=0.00000762
+ K2=0
+ K3= {Ind}
+ K4=0
+ K5=0
+ L=0
+ Is=0
+ a=0
+ L_Z0=0
+ L_EL=0
+ L_F0=0E6
+ PkZ=11981.0291
.ends 0603HP-3N3_freq

*======================================================================
* SPICE Model generated by Coilcraft
* Coilcraft Part Number : 0603HP-3N6
* Inductance = 3.6nH
*======================================================================
* Model Parameters:
*   Valid Frequency Range = 0.001GHz-20GHz
*   Ambient Temperature = 25 degC
*   Inductor Frequency Model
*   Use model for Frequency Domain simulations
*======================================================================
.subckt 0603HP-3N6_freq port1 port2 PARAMS: Cpar=0.041pF Ind=3.6nH
X1 port1 port2 Model2A PARAMS:
+ R1=2
+ R2=0.031
+ C= {Cpar}
+ K1=0.0000076
+ K2=0
+ K3= {Ind}
+ K4=0
+ K5=0
+ L=0
+ Is=0
+ a=0
+ L_Z0=0
+ L_EL=0
+ L_F0=0E6
+ PkZ=30596.3276
.ends 0603HP-3N6_freq

*======================================================================
* SPICE Model generated by Coilcraft
* Coilcraft Part Number : 0603HP-3N9
* Inductance = 3.9nH
*======================================================================
* Model Parameters:
*   Valid Frequency Range = 0.001GHz-14GHz
*   Ambient Temperature = 25 degC
*   Inductor Frequency Model
*   Use model for Frequency Domain simulations
*======================================================================
.subckt 0603HP-3N9_freq port1 port2 PARAMS: Cpar=0.06pF Ind=3.9nH
X1 port1 port2 Model2A PARAMS:
+ R1=10
+ R2=0.039
+ C= {Cpar}
+ K1=0.0000084
+ K2=0
+ K3= {Ind}
+ K4=0
+ K5=0
+ L=0
+ Is=0
+ a=0
+ L_Z0=0
+ L_EL=0
+ L_F0=0E6
+ PkZ=5991.70113
.ends 0603HP-3N9_freq

*======================================================================
* SPICE Model generated by Coilcraft
* Coilcraft Part Number : 0603HP-4N3
* Inductance = 4.3nH
*======================================================================
* Model Parameters:
*   Valid Frequency Range = 0.001GHz-14GHz
*   Ambient Temperature = 25 degC
*   Inductor Frequency Model
*   Use model for Frequency Domain simulations
*======================================================================
.subckt 0603HP-4N3_freq port1 port2 PARAMS: Cpar=0.054pF Ind=4.3nH
X1 port1 port2 Model2A PARAMS:
+ R1=18
+ R2=0.08
+ C= {Cpar}
+ K1=0.0000102
+ K2=0
+ K3= {Ind}
+ K4=0
+ K5=0
+ L=0
+ Is=0
+ a=0
+ L_Z0=0
+ L_EL=0
+ L_F0=0E6
+ PkZ=4190.30304
.ends 0603HP-4N3_freq

*======================================================================
* SPICE Model generated by Coilcraft
* Coilcraft Part Number : 0603HP-4N7
* Inductance = 4.7nH
*======================================================================
* Model Parameters:
*   Valid Frequency Range = 0.001GHz-14GHz
*   Ambient Temperature = 25 degC
*   Inductor Frequency Model
*   Use model for Frequency Domain simulations
*======================================================================
.subckt 0603HP-4N7_freq port1 port2 PARAMS: Cpar=0.051pF Ind=4.7nH
X1 port1 port2 Model2A PARAMS:
+ R1=13
+ R2=0.1
+ C= {Cpar}
+ K1=0.0000139
+ K2=0
+ K3= {Ind}
+ K4=0
+ K5=0
+ L=0
+ Is=0
+ a=0
+ L_Z0=0
+ L_EL=0
+ L_F0=0E6
+ PkZ=6401.67571
.ends 0603HP-4N7_freq

*======================================================================
* SPICE Model generated by Coilcraft
* Coilcraft Part Number : 0603HP-5N1
* Inductance = 5.1nH
*======================================================================
* Model Parameters:
*   Valid Frequency Range = 0.001GHz-14GHz
*   Ambient Temperature = 25 degC
*   Inductor Frequency Model
*   Use model for Frequency Domain simulations
*======================================================================
.subckt 0603HP-5N1_freq port1 port2 PARAMS: Cpar=0.041pF Ind=5.1nH
X1 port1 port2 Model2A PARAMS:
+ R1=8
+ R2=0.036
+ C= {Cpar}
+ K1=0.0000087
+ K2=0
+ K3= {Ind}
+ K4=0
+ K5=0
+ L=0
+ Is=0
+ a=0
+ L_Z0=0
+ L_EL=0
+ L_F0=0E6
+ PkZ=13960.1469
.ends 0603HP-5N1_freq

*======================================================================
* SPICE Model generated by Coilcraft
* Coilcraft Part Number : 0603HP-5N6
* Inductance = 5.6nH
*======================================================================
* Model Parameters:
*   Valid Frequency Range = 0.001GHz-14GHz
*   Ambient Temperature = 25 degC
*   Inductor Frequency Model
*   Use model for Frequency Domain simulations
*======================================================================
.subckt 0603HP-5N6_freq port1 port2 PARAMS: Cpar=0.038pF Ind=5.6nH
X1 port1 port2 Model2A PARAMS:
+ R1=11
+ R2=0.036
+ C= {Cpar}
+ K1=0.0000093
+ K2=0
+ K3= {Ind}
+ K4=0
+ K5=0
+ L=0
+ Is=0
+ a=0
+ L_Z0=0
+ L_EL=0
+ L_F0=0E6
+ PkZ=12315.164
.ends 0603HP-5N6_freq

*======================================================================
* SPICE Model generated by Coilcraft
* Coilcraft Part Number : 0603HP-6N0
* Inductance = 6nH
*======================================================================
* Model Parameters:
*   Valid Frequency Range = 0.001GHz-10GHz
*   Ambient Temperature = 25 degC
*   Inductor Frequency Model
*   Use model for Frequency Domain simulations
*======================================================================
.subckt 0603HP-6N0_freq port1 port2 PARAMS: Cpar=0.061pF Ind=6nH
X1 port1 port2 Model2A PARAMS:
+ R1=12
+ R2=0.036
+ C= {Cpar}
+ K1=0.0000091
+ K2=0
+ K3= {Ind}
+ K4=0
+ K5=0
+ L=0
+ Is=0
+ a=0
+ L_Z0=0
+ L_EL=0
+ L_F0=0E6
+ PkZ=7672.12701
.ends 0603HP-6N0_freq

*======================================================================
* SPICE Model generated by Coilcraft
* Coilcraft Part Number : 0603HP-6N8
* Inductance = 6.8nH
*======================================================================
* Model Parameters:
*   Valid Frequency Range = 0.001GHz-10GHz
*   Ambient Temperature = 25 degC
*   Inductor Frequency Model
*   Use model for Frequency Domain simulations
*======================================================================
.subckt 0603HP-6N8_freq port1 port2 PARAMS: Cpar=0.061pF Ind=6.8nH
X1 port1 port2 Model2A PARAMS:
+ R1=10
+ R2=0.042
+ C= {Cpar}
+ K1=0.0000113
+ K2=0
+ K3= {Ind}
+ K4=0
+ K5=0
+ L=0
+ Is=0
+ a=0
+ L_Z0=0
+ L_EL=0
+ L_F0=0E6
+ PkZ=10139.7594
.ends 0603HP-6N8_freq

*======================================================================
* SPICE Model generated by Coilcraft
* Coilcraft Part Number : 0603HP-7N2
* Inductance = 7.2nH
*======================================================================
* Model Parameters:
*   Valid Frequency Range = 0.001GHz-10GHz
*   Ambient Temperature = 25 degC
*   Inductor Frequency Model
*   Use model for Frequency Domain simulations
*======================================================================
.subckt 0603HP-7N2_freq port1 port2 PARAMS: Cpar=0.067pF Ind=7.2nH
X1 port1 port2 Model2A PARAMS:
+ R1=11
+ R2=0.052
+ C= {Cpar}
+ K1=0.0000112
+ K2=0
+ K3= {Ind}
+ K4=0
+ K5=0
+ L=0
+ Is=0
+ a=0
+ L_Z0=0
+ L_EL=0
+ L_F0=0E6
+ PkZ=8995.28357
.ends 0603HP-7N2_freq

*======================================================================
* SPICE Model generated by Coilcraft
* Coilcraft Part Number : 0603HP-7N5
* Inductance = 7.5nH
*======================================================================
* Model Parameters:
*   Valid Frequency Range = 0.001GHz-10GHz
*   Ambient Temperature = 25 degC
*   Inductor Frequency Model
*   Use model for Frequency Domain simulations
*======================================================================
.subckt 0603HP-7N5_freq port1 port2 PARAMS: Cpar=0.074pF Ind=7.5nH
X1 port1 port2 Model2A PARAMS:
+ R1=14
+ R2=0.08
+ C= {Cpar}
+ K1=0.000014
+ K2=0
+ K3= {Ind}
+ K4=0
+ K5=0
+ L=0
+ Is=0
+ a=0
+ L_Z0=0
+ L_EL=0
+ L_F0=0E6
+ PkZ=6696.13473
.ends 0603HP-7N5_freq

*======================================================================
* SPICE Model generated by Coilcraft
* Coilcraft Part Number : 0603HP-8N2
* Inductance = 8.2nH
*======================================================================
* Model Parameters:
*   Valid Frequency Range = 0.001GHz-10GHz
*   Ambient Temperature = 25 degC
*   Inductor Frequency Model
*   Use model for Frequency Domain simulations
*======================================================================
.subckt 0603HP-8N2_freq port1 port2 PARAMS: Cpar=0.034pF Ind=8.2nH
X1 port1 port2 Model2A PARAMS:
+ R1=22
+ R2=0.054
+ C= {Cpar}
+ K1=0.000013
+ K2=0
+ K3= {Ind}
+ K4=0
+ K5=0
+ L=0
+ Is=0
+ a=0
+ L_Z0=0
+ L_EL=0
+ L_F0=0E6
+ PkZ=10375.1054
.ends 0603HP-8N2_freq

*======================================================================
* SPICE Model generated by Coilcraft
* Coilcraft Part Number : 0603HP-8N7
* Inductance = 8.7nH
*======================================================================
* Model Parameters:
*   Valid Frequency Range = 0.001GHz-10GHz
*   Ambient Temperature = 25 degC
*   Inductor Frequency Model
*   Use model for Frequency Domain simulations
*======================================================================
.subckt 0603HP-8N7_freq port1 port2 PARAMS: Cpar=0.037pF Ind=8.7nH
X1 port1 port2 Model2A PARAMS:
+ R1=15
+ R2=0.054
+ C= {Cpar}
+ K1=0.0000135
+ K2=0
+ K3= {Ind}
+ K4=0
+ K5=0
+ L=0
+ Is=0
+ a=0
+ L_Z0=0
+ L_EL=0
+ L_F0=0E6
+ PkZ=14457.758
.ends 0603HP-8N7_freq

*======================================================================
* SPICE Model generated by Coilcraft
* Coilcraft Part Number : 0603HP-9N1
* Inductance = 9.1nH
*======================================================================
* Model Parameters:
*   Valid Frequency Range = 0.001GHz-10GHz
*   Ambient Temperature = 25 degC
*   Inductor Frequency Model
*   Use model for Frequency Domain simulations
*======================================================================
.subckt 0603HP-9N1_freq port1 port2 PARAMS: Cpar=0.053pF Ind=9.1nH
X1 port1 port2 Model2A PARAMS:
+ R1=9
+ R2=0.037
+ C= {Cpar}
+ K1=0.000017
+ K2=0
+ K3= {Ind}
+ K4=0
+ K5=0
+ L=0
+ Is=0
+ a=0
+ L_Z0=0
+ L_EL=0
+ L_F0=0E6
+ PkZ=16438.8524
.ends 0603HP-9N1_freq

*======================================================================
* SPICE Model generated by Coilcraft
* Coilcraft Part Number : 0603HP-9N5
* Inductance = 9.5nH
*======================================================================
* Model Parameters:
*   Valid Frequency Range = 0.001GHz-10GHz
*   Ambient Temperature = 25 degC
*   Inductor Frequency Model
*   Use model for Frequency Domain simulations
*======================================================================
.subckt 0603HP-9N5_freq port1 port2 PARAMS: Cpar=0.048pF Ind=9.5nH
X1 port1 port2 Model2A PARAMS:
+ R1=17
+ R2=0.053
+ C= {Cpar}
+ K1=0.0000144
+ K2=0
+ K3= {Ind}
+ K4=0
+ K5=0
+ L=0
+ Is=0
+ a=0
+ L_Z0=0
+ L_EL=0
+ L_F0=0E6
+ PkZ=10856.8207
.ends 0603HP-9N5_freq

*======================================================================
* SPICE Model generated by Coilcraft
* Coilcraft Part Number : 0603HP-10N
* Inductance = 10nH
*======================================================================
* Model Parameters:
*   Valid Frequency Range = 0.001GHz-10GHz
*   Ambient Temperature = 25 degC
*   Inductor Frequency Model
*   Use model for Frequency Domain simulations
*======================================================================
.subckt 0603HP-10N_freq port1 port2 PARAMS: Cpar=0.074pF Ind=10nH
X1 port1 port2 Model2A PARAMS:
+ R1=12
+ R2=0.048
+ C= {Cpar}
+ K1=0.0000156
+ K2=0
+ K3= {Ind}
+ K4=0
+ K5=0
+ L=0
+ Is=0
+ a=0
+ L_Z0=0
+ L_EL=0
+ L_F0=0E6
+ PkZ=10248.3158
.ends 0603HP-10N_freq

*======================================================================
* SPICE Model generated by Coilcraft
* Coilcraft Part Number : 0603HP-11N
* Inductance = 11nH
*======================================================================
* Model Parameters:
*   Valid Frequency Range = 0.001GHz-10GHz
*   Ambient Temperature = 25 degC
*   Inductor Frequency Model
*   Use model for Frequency Domain simulations
*======================================================================
.subckt 0603HP-11N_freq port1 port2 PARAMS: Cpar=0.061pF Ind=11nH
X1 port1 port2 Model2A PARAMS:
+ R1=10
+ R2=0.042
+ C= {Cpar}
+ K1=0.0000224
+ K2=0
+ K3= {Ind}
+ K4=0
+ K5=0
+ L=0
+ Is=0
+ a=0
+ L_Z0=0
+ L_EL=0
+ L_F0=0E6
+ PkZ=15343.8937
.ends 0603HP-11N_freq

*======================================================================
* SPICE Model generated by Coilcraft
* Coilcraft Part Number : 0603HP-12N
* Inductance = 12nH
*======================================================================
* Model Parameters:
*   Valid Frequency Range = 0.001GHz-9GHz
*   Ambient Temperature = 25 degC
*   Inductor Frequency Model
*   Use model for Frequency Domain simulations
*======================================================================
.subckt 0603HP-12N_freq port1 port2 PARAMS: Cpar=0.064pF Ind=12nH
X1 port1 port2 Model2A PARAMS:
+ R1=9
+ R2=0.088
+ C= {Cpar}
+ K1=0.0000283
+ K2=0
+ K3= {Ind}
+ K4=0
+ K5=0
+ L=0
+ Is=0
+ a=0
+ L_Z0=0
+ L_EL=0
+ L_F0=0E6
+ PkZ=16828.1456
.ends 0603HP-12N_freq

*======================================================================
* SPICE Model generated by Coilcraft
* Coilcraft Part Number : 0603HP-15N
* Inductance = 15nH
*======================================================================
* Model Parameters:
*   Valid Frequency Range = 0.001GHz-9GHz
*   Ambient Temperature = 25 degC
*   Inductor Frequency Model
*   Use model for Frequency Domain simulations
*======================================================================
.subckt 0603HP-15N_freq port1 port2 PARAMS: Cpar=0.066pF Ind=15nH
X1 port1 port2 Model2A PARAMS:
+ R1=13
+ R2=0.078
+ C= {Cpar}
+ K1=0.000025
+ K2=0
+ K3= {Ind}
+ K4=0
+ K5=0
+ L=0
+ Is=0
+ a=0
+ L_Z0=0
+ L_EL=0
+ L_F0=0E6
+ PkZ=15384.9873
.ends 0603HP-15N_freq

*======================================================================
* SPICE Model generated by Coilcraft
* Coilcraft Part Number : 0603HP-16N
* Inductance = 16nH
*======================================================================
* Model Parameters:
*   Valid Frequency Range = 0.001GHz-9GHz
*   Ambient Temperature = 25 degC
*   Inductor Frequency Model
*   Use model for Frequency Domain simulations
*======================================================================
.subckt 0603HP-16N_freq port1 port2 PARAMS: Cpar=0.068pF Ind=16nH
X1 port1 port2 Model2A PARAMS:
+ R1=3
+ R2=0.085
+ C= {Cpar}
+ K1=0.000031
+ K2=0
+ K3= {Ind}
+ K4=0
+ K5=0
+ L=0
+ Is=0
+ a=0
+ L_Z0=0
+ L_EL=0
+ L_F0=0E6
+ PkZ=45659.8879
.ends 0603HP-16N_freq

*======================================================================
* SPICE Model generated by Coilcraft
* Coilcraft Part Number : 0603HP-18N
* Inductance = 18nH
*======================================================================
* Model Parameters:
*   Valid Frequency Range = 0.001GHz-8GHz
*   Ambient Temperature = 25 degC
*   Inductor Frequency Model
*   Use model for Frequency Domain simulations
*======================================================================
.subckt 0603HP-18N_freq port1 port2 PARAMS: Cpar=0.064pF Ind=18nH
X1 port1 port2 Model2A PARAMS:
+ R1=10
+ R2=0.066
+ C= {Cpar}
+ K1=0.0000366
+ K2=0
+ K3= {Ind}
+ K4=0
+ K5=0
+ L=0
+ Is=0
+ a=0
+ L_Z0=0
+ L_EL=0
+ L_F0=0E6
+ PkZ=22493.0321
.ends 0603HP-18N_freq

*======================================================================
* SPICE Model generated by Coilcraft
* Coilcraft Part Number : 0603HP-22N
* Inductance = 22nH
*======================================================================
* Model Parameters:
*   Valid Frequency Range = 0.001GHz-8GHz
*   Ambient Temperature = 25 degC
*   Inductor Frequency Model
*   Use model for Frequency Domain simulations
*======================================================================
.subckt 0603HP-22N_freq port1 port2 PARAMS: Cpar=0.058pF Ind=22nH
X1 port1 port2 Model2A PARAMS:
+ R1=2
+ R2=0.14
+ C= {Cpar}
+ K1=0.000049
+ K2=0
+ K3= {Ind}
+ K4=0
+ K5=0
+ L=0
+ Is=0
+ a=0
+ L_Z0=0
+ L_EL=0
+ L_F0=0E6
+ PkZ=71967.0831
.ends 0603HP-22N_freq

*======================================================================
* SPICE Model generated by Coilcraft
* Coilcraft Part Number : 0603HP-23N
* Inductance = 23nH
*======================================================================
* Model Parameters:
*   Valid Frequency Range = 0.001GHz-8GHz
*   Ambient Temperature = 25 degC
*   Inductor Frequency Model
*   Use model for Frequency Domain simulations
*======================================================================
.subckt 0603HP-23N_freq port1 port2 PARAMS: Cpar=0.068pF Ind=23nH
X1 port1 port2 Model2A PARAMS:
+ R1=16
+ R2=0.15
+ C= {Cpar}
+ K1=0.000049
+ K2=0
+ K3= {Ind}
+ K4=0
+ K5=0
+ L=0
+ Is=0
+ a=0
+ L_Z0=0
+ L_EL=0
+ L_F0=0E6
+ PkZ=17707.9027
.ends 0603HP-23N_freq

*======================================================================
* SPICE Model generated by Coilcraft
* Coilcraft Part Number : 0603HP-24N
* Inductance = 24nH
*======================================================================
* Model Parameters:
*   Valid Frequency Range = 0.001GHz-8GHz
*   Ambient Temperature = 25 degC
*   Inductor Frequency Model
*   Use model for Frequency Domain simulations
*======================================================================
.subckt 0603HP-24N_freq port1 port2 PARAMS: Cpar=0.061pF Ind=24nH
X1 port1 port2 Model2A PARAMS:
+ R1=21
+ R2=0.074
+ C= {Cpar}
+ K1=0.000046
+ K2=0
+ K3= {Ind}
+ K4=0
+ K5=0
+ L=0
+ Is=0
+ a=0
+ L_Z0=0
+ L_EL=0
+ L_F0=0E6
+ PkZ=16425.6331
.ends 0603HP-24N_freq

*======================================================================
* SPICE Model generated by Coilcraft
* Coilcraft Part Number : 0603HP-27N
* Inductance = 27nH
*======================================================================
* Model Parameters:
*   Valid Frequency Range = 0.001GHz-8GHz
*   Ambient Temperature = 25 degC
*   Inductor Frequency Model
*   Use model for Frequency Domain simulations
*======================================================================
.subckt 0603HP-27N_freq port1 port2 PARAMS: Cpar=0.063pF Ind=27nH
X1 port1 port2 Model2A PARAMS:
+ R1=11
+ R2=0.15
+ C= {Cpar}
+ K1=0.0000563
+ K2=0
+ K3= {Ind}
+ K4=0
+ K5=0
+ L=0
+ Is=0
+ a=0
+ L_Z0=0
+ L_EL=0
+ L_F0=0E6
+ PkZ=29566.7429
.ends 0603HP-27N_freq

*======================================================================
* SPICE Model generated by Coilcraft
* Coilcraft Part Number : 0603HP-30N
* Inductance = 30nH
*======================================================================
* Model Parameters:
*   Valid Frequency Range = 0.001GHz-6GHz
*   Ambient Temperature = 25 degC
*   Inductor Frequency Model
*   Use model for Frequency Domain simulations
*======================================================================
.subckt 0603HP-30N_freq port1 port2 PARAMS: Cpar=0.052pF Ind=30nH
X1 port1 port2 Model2A PARAMS:
+ R1=14
+ R2=0.13
+ C= {Cpar}
+ K1=0.000061
+ K2=0
+ K3= {Ind}
+ K4=0
+ K5=0
+ L=0
+ Is=0
+ a=0
+ L_Z0=0
+ L_EL=0
+ L_F0=0E6
+ PkZ=32286.4892
.ends 0603HP-30N_freq

*======================================================================
* SPICE Model generated by Coilcraft
* Coilcraft Part Number : 0603HP-33N
* Inductance = 33nH
*======================================================================
* Model Parameters:
*   Valid Frequency Range = 0.001GHz-6GHz
*   Ambient Temperature = 25 degC
*   Inductor Frequency Model
*   Use model for Frequency Domain simulations
*======================================================================
.subckt 0603HP-33N_freq port1 port2 PARAMS: Cpar=0.053pF Ind=33nH
X1 port1 port2 Model2A PARAMS:
+ R1=14
+ R2=0.17
+ C= {Cpar}
+ K1=0.0000697
+ K2=0
+ K3= {Ind}
+ K4=0
+ K5=0
+ L=0
+ Is=0
+ a=0
+ L_Z0=0
+ L_EL=0
+ L_F0=0E6
+ PkZ=34030.5797
.ends 0603HP-33N_freq

*======================================================================
* SPICE Model generated by Coilcraft
* Coilcraft Part Number : 0603HP-36N
* Inductance = 36nH
*======================================================================
* Model Parameters:
*   Valid Frequency Range = 0.001GHz-6GHz
*   Ambient Temperature = 25 degC
*   Inductor Frequency Model
*   Use model for Frequency Domain simulations
*======================================================================
.subckt 0603HP-36N_freq port1 port2 PARAMS: Cpar=0.063pF Ind=36nH
X1 port1 port2 Model2A PARAMS:
+ R1=18
+ R2=0.2
+ C= {Cpar}
+ K1=0.000079
+ K2=0
+ K3= {Ind}
+ K4=0
+ K5=0
+ L=0
+ Is=0
+ a=0
+ L_Z0=0
+ L_EL=0
+ L_F0=0E6
+ PkZ=25329.3175
.ends 0603HP-36N_freq

*======================================================================
* SPICE Model generated by Coilcraft
* Coilcraft Part Number : 0603HP-39N
* Inductance = 39nH
*======================================================================
* Model Parameters:
*   Valid Frequency Range = 0.001GHz-6GHz
*   Ambient Temperature = 25 degC
*   Inductor Frequency Model
*   Use model for Frequency Domain simulations
*======================================================================
.subckt 0603HP-39N_freq port1 port2 PARAMS: Cpar=0.049pF Ind=39nH
X1 port1 port2 Model2A PARAMS:
+ R1=22
+ R2=0.19
+ C= {Cpar}
+ K1=0.0000788
+ K2=0
+ K3= {Ind}
+ K4=0
+ K5=0
+ L=0
+ Is=0
+ a=0
+ L_Z0=0
+ L_EL=0
+ L_F0=0E6
+ PkZ=29758.4107
.ends 0603HP-39N_freq

*======================================================================
* SPICE Model generated by Coilcraft
* Coilcraft Part Number : 0603HP-43N
* Inductance = 43nH
*======================================================================
* Model Parameters:
*   Valid Frequency Range = 0.001GHz-6GHz
*   Ambient Temperature = 25 degC
*   Inductor Frequency Model
*   Use model for Frequency Domain simulations
*======================================================================
.subckt 0603HP-43N_freq port1 port2 PARAMS: Cpar=0.047pF Ind=43nH
X1 port1 port2 Model2A PARAMS:
+ R1=21
+ R2=0.17
+ C= {Cpar}
+ K1=0.0000832
+ K2=0
+ K3= {Ind}
+ K4=0
+ K5=0
+ L=0
+ Is=0
+ a=0
+ L_Z0=0
+ L_EL=0
+ L_F0=0E6
+ PkZ=35264.586
.ends 0603HP-43N_freq

*======================================================================
* SPICE Model generated by Coilcraft
* Coilcraft Part Number : 0603HP-47N
* Inductance = 47nH
*======================================================================
* Model Parameters:
*   Valid Frequency Range = 0.001GHz-6GHz
*   Ambient Temperature = 25 degC
*   Inductor Frequency Model
*   Use model for Frequency Domain simulations
*======================================================================
.subckt 0603HP-47N_freq port1 port2 PARAMS: Cpar=0.047pF Ind=47nH
X1 port1 port2 Model2A PARAMS:
+ R1=20
+ R2=0.24
+ C= {Cpar}
+ K1=0.000094
+ K2=0
+ K3= {Ind}
+ K4=0
+ K5=0
+ L=0
+ Is=0
+ a=0
+ L_Z0=0
+ L_EL=0
+ L_F0=0E6
+ PkZ=39270.5219
.ends 0603HP-47N_freq

*======================================================================
* SPICE Model generated by Coilcraft
* Coilcraft Part Number : 0603HP-51N
* Inductance = 51nH
*======================================================================
* Model Parameters:
*   Valid Frequency Range = 0.001GHz-6GHz
*   Ambient Temperature = 25 degC
*   Inductor Frequency Model
*   Use model for Frequency Domain simulations
*======================================================================
.subckt 0603HP-51N_freq port1 port2 PARAMS: Cpar=0.04pF Ind=51nH
X1 port1 port2 Model2A PARAMS:
+ R1=35
+ R2=0.28
+ C= {Cpar}
+ K1=0.00011
+ K2=0
+ K3= {Ind}
+ K4=0
+ K5=0
+ L=0
+ Is=0
+ a=0
+ L_Z0=0
+ L_EL=0
+ L_F0=0E6
+ PkZ=30716.4355
.ends 0603HP-51N_freq

*======================================================================
* SPICE Model generated by Coilcraft
* Coilcraft Part Number : 0603HP-56N
* Inductance = 56nH
*======================================================================
* Model Parameters:
*   Valid Frequency Range = 0.001GHz-6GHz
*   Ambient Temperature = 25 degC
*   Inductor Frequency Model
*   Use model for Frequency Domain simulations
*======================================================================
.subckt 0603HP-56N_freq port1 port2 PARAMS: Cpar=0.038pF Ind=56nH
X1 port1 port2 Model2A PARAMS:
+ R1=47
+ R2=0.3
+ C= {Cpar}
+ K1=0.00012
+ K2=0
+ K3= {Ind}
+ K4=0
+ K5=0
+ L=0
+ Is=0
+ a=0
+ L_Z0=0
+ L_EL=0
+ L_F0=0E6
+ PkZ=27287.1323
.ends 0603HP-56N_freq

*======================================================================
* SPICE Model generated by Coilcraft
* Coilcraft Part Number : 0603HP-68N
* Inductance = 68nH
*======================================================================
* Model Parameters:
*   Valid Frequency Range = 0.001GHz-4GHz
*   Ambient Temperature = 25 degC
*   Inductor Frequency Model
*   Use model for Frequency Domain simulations
*======================================================================
.subckt 0603HP-68N_freq port1 port2 PARAMS: Cpar=0.043pF Ind=68nH
X1 port1 port2 Model2A PARAMS:
+ R1=44
+ R2=0.33
+ C= {Cpar}
+ K1=0.000132
+ K2=0
+ K3= {Ind}
+ K4=0
+ K5=0
+ L=0
+ Is=0
+ a=0
+ L_Z0=0
+ L_EL=0
+ L_F0=0E6
+ PkZ=30929.7587
.ends 0603HP-68N_freq

*======================================================================
* SPICE Model generated by Coilcraft
* Coilcraft Part Number : 0603HP-72N
* Inductance = 72nH
*======================================================================
* Model Parameters:
*   Valid Frequency Range = 0.001GHz-4GHz
*   Ambient Temperature = 25 degC
*   Inductor Frequency Model
*   Use model for Frequency Domain simulations
*======================================================================
.subckt 0603HP-72N_freq port1 port2 PARAMS: Cpar=0.045pF Ind=72nH
X1 port1 port2 Model2A PARAMS:
+ R1=25
+ R2=0.42
+ C= {Cpar}
+ K1=0.000145
+ K2=0
+ K3= {Ind}
+ K4=0
+ K5=0
+ L=0
+ Is=0
+ a=0
+ L_Z0=0
+ L_EL=0
+ L_F0=0E6
+ PkZ=48989.5419
.ends 0603HP-72N_freq

*======================================================================
* SPICE Model generated by Coilcraft
* Coilcraft Part Number : 0603HP-75N
* Inductance = 75nH
*======================================================================
* Model Parameters:
*   Valid Frequency Range = 0.001GHz-4GHz
*   Ambient Temperature = 25 degC
*   Inductor Frequency Model
*   Use model for Frequency Domain simulations
*======================================================================
.subckt 0603HP-75N_freq port1 port2 PARAMS: Cpar=0.047pF Ind=75nH
X1 port1 port2 Model2A PARAMS:
+ R1=40
+ R2=0.52
+ C= {Cpar}
+ K1=0.00014
+ K2=0
+ K3= {Ind}
+ K4=0
+ K5=0
+ L=0
+ Is=0
+ a=0
+ L_Z0=0
+ L_EL=0
+ L_F0=0E6
+ PkZ=33791.4467
.ends 0603HP-75N_freq

*======================================================================
* SPICE Model generated by Coilcraft
* Coilcraft Part Number : 0603HP-82N
* Inductance = 82nH
*======================================================================
* Model Parameters:
*   Valid Frequency Range = 0.001GHz-4GHz
*   Ambient Temperature = 25 degC
*   Inductor Frequency Model
*   Use model for Frequency Domain simulations
*======================================================================