*======================================================================
* SPICE Model generated by Coilcraft
* Coilcraft Part Number : 0603PS-781
* Inductance = 0.78uH
*======================================================================
* Model Parameters:
*   Valid Frequency Range = 0.1MHz-200MHz
*   Ambient Temperature = 25 degC
*   Inductor Frequency Model
*   Use model for Frequency Domain simulations
*======================================================================
.subckt 0603PS-781_freq port1 port2 PARAMS: Cpar=12pF Ind=0.78uH
X1 port1 port2 Model1A PARAMS:
+ R1=2330
+ R2=0.05
+ C= {Cpar}
+ K1=3.77E-09
+ K2=0.216
+ K3= {Ind}
+ K4=0.00635
+ K5=0.00000972
+ L=0
+ Is=0
+ a=0
+ L_Z0=0
+ L_EL=0
+ L_F0=0E6
+ PkZ=242.761247
.ends 0603PS-781_freq

*======================================================================
* SPICE Model generated by Coilcraft
* Coilcraft Part Number : 0603PS-781
* Inductance = 0.78uH
*======================================================================
* Model Parameters:
*   Valid Frequency Range = 0.1MHz-200MHz
*   Ambient Temperature = 25 degC
*   Inductor Impedance Model
*   Use model for Time Domain simulations
*======================================================================
.subckt 0603PS-781_imp port1 port2 PARAMS: Cpar=11.39pF Ind=0.78uH
X1 port1 port2 Model1D PARAMS:
+ R1=2330
+ R2=0.05
+ C= {Cpar}
+ K1=3.77E-09
+ K2=0.216
+ K3= {Ind}
+ K4=0.00635
+ K5=0.00000972
+ L=0
+ Is=0
+ a=0
+ L_Z0=0
+ L_EL=0
+ L_F0=0E6
+ PkZ=242.761247
.ends 0603PS-781_imp

*======================================================================
* SPICE Model generated by Coilcraft
* Coilcraft Part Number : 0603PS-102
* Inductance = 1uH
*======================================================================
* Model Parameters:
*   Valid Frequency Range = 0.1MHz-150MHz
*   Ambient Temperature = 25 degC
*   Inductor Frequency Model
*   Use model for Frequency Domain simulations
*======================================================================
.subckt 0603PS-102_freq port1 port2 PARAMS: Cpar=12.3pF Ind=1uH
X1 port1 port2 Model1A PARAMS:
+ R1=3160
+ R2=0.203
+ C= {Cpar}
+ K1=6.12E-09
+ K2=0.447
+ K3= {Ind}
+ K4=0.0115
+ K5=0.0000104
+ L=0
+ Is=0
+ a=0
+ L_Z0=0
+ L_EL=0
+ L_F0=0E6
+ PkZ=272.595699
.ends 0603PS-102_freq

*======================================================================
* SPICE Model generated by Coilcraft
* Coilcraft Part Number : 0603PS-102
* Inductance = 1uH
*======================================================================
* Model Parameters:
*   Valid Frequency Range = 0.1MHz-150MHz
*   Ambient Temperature = 25 degC
*   Inductor Impedance Model
*   Use model for Time Domain simulations
*======================================================================
.subckt 0603PS-102_imp port1 port2 PARAMS: Cpar=11.43pF Ind=1uH
X1 port1 port2 Model1D PARAMS:
+ R1=3160
+ R2=0.203
+ C= {Cpar}
+ K1=6.12E-09
+ K2=0.447
+ K3= {Ind}
+ K4=0.0115
+ K5=0.0000104
+ L=0
+ Is=0
+ a=0
+ L_Z0=0
+ L_EL=0
+ L_F0=0E6
+ PkZ=272.595699
.ends 0603PS-102_imp

*======================================================================
* SPICE Model generated by Coilcraft
* Coilcraft Part Number : 0603PS-182
* Inductance = 1.8uH
*======================================================================
* Model Parameters:
*   Valid Frequency Range = 0.1MHz-100MHz
*   Ambient Temperature = 25 degC
*   Inductor Frequency Model
*   Use model for Frequency Domain simulations
*======================================================================
.subckt 0603PS-182_freq port1 port2 PARAMS: Cpar=0.363pF Ind=1.8uH
X1 port1 port2 Model1A PARAMS:
+ R1=1330
+ R2=0.328
+ C= {Cpar}
+ K1=0.00000335
+ K2=0.503
+ K3= {Ind}
+ K4=0.0193
+ K5=0.0000104
+ L=0
+ Is=0
+ a=0
+ L_Z0=0
+ L_EL=0
+ L_F0=0E6
+ PkZ=2681.487
.ends 0603PS-182_freq

*======================================================================
* SPICE Model generated by Coilcraft
* Coilcraft Part Number : 0603PS-182
* Inductance = 1.8uH
*======================================================================
* Model Parameters:
*   Valid Frequency Range = 0.1MHz-100MHz
*   Ambient Temperature = 25 degC
*   Inductor Impedance Model
*   Use model for Time Domain simulations
*======================================================================
.subckt 0603PS-182_imp port1 port2 PARAMS: Cpar=0.33pF Ind=1.8uH
X1 port1 port2 Model1D PARAMS:
+ R1=1330
+ R2=0.328
+ C= {Cpar}
+ K1=0.00000335
+ K2=0.503
+ K3= {Ind}
+ K4=0.0193
+ K5=0.0000104
+ L=0
+ Is=0
+ a=0
+ L_Z0=0
+ L_EL=0
+ L_F0=0E6
+ PkZ=2681.487
.ends 0603PS-182_imp

*======================================================================
* SPICE Model generated by Coilcraft
* Coilcraft Part Number : 0603PS-222
* Inductance = 2.2uH
*======================================================================
* Model Parameters:
*   Valid Frequency Range = 0.1MHz-50MHz
*   Ambient Temperature = 25 degC
*   Inductor Frequency Model
*   Use model for Frequency Domain simulations
*======================================================================
.subckt 0603PS-222_freq port1 port2 PARAMS: Cpar=2.84pF Ind=2.2uH
X1 port1 port2 Model1A PARAMS:
+ R1=6150
+ R2=0.347
+ C= {Cpar}
+ K1=0
+ K2=0.688
+ K3= {Ind}
+ K4=0.0276
+ K5=0.00000978
+ L=0
+ Is=0
+ a=0
+ L_Z0=0
+ L_EL=0
+ L_F0=0E6
+ PkZ=825.265681
.ends 0603PS-222_freq

*======================================================================
* SPICE Model generated by Coilcraft
* Coilcraft Part Number : 0603PS-222
* Inductance = 2.2uH
*======================================================================
* Model Parameters:
*   Valid Frequency Range = 0.1MHz-50MHz
*   Ambient Temperature = 25 degC
*   Inductor Impedance Model
*   Use model for Time Domain simulations
*======================================================================
.subckt 0603PS-222_imp port1 port2 PARAMS: Cpar=2.61pF Ind=2.2uH
X1 port1 port2 Model1D PARAMS:
+ R1=6150
+ R2=0.347
+ C= {Cpar}
+ K1=0
+ K2=0.688
+ K3= {Ind}
+ K4=0.0276
+ K5=0.00000978
+ L=0
+ Is=0
+ a=0
+ L_Z0=0
+ L_EL=0
+ L_F0=0E6
+ PkZ=825.265681
.ends 0603PS-222_imp

*======================================================================
* SPICE Model generated by Coilcraft
* Coilcraft Part Number : 0603PS-272
* Inductance = 2.7uH
*======================================================================
* Model Parameters:
*   Valid Frequency Range = 0.1MHz-50MHz
*   Ambient Temperature = 25 degC
*   Inductor Frequency Model
*   Use model for Frequency Domain simulations
*======================================================================
.subckt 0603PS-272_freq port1 port2 PARAMS: Cpar=0.678pF Ind=2.7uH
X1 port1 port2 Model1A PARAMS:
+ R1=5580
+ R2=0.352
+ C= {Cpar}
+ K1=0.00000553
+ K2=0.96
+ K3= {Ind}
+ K4=0.0276
+ K5=0.00000978
+ L=0
+ Is=0
+ a=0
+ L_Z0=0
+ L_EL=0
+ L_F0=0E6
+ PkZ=1885.97696
.ends 0603PS-272_freq

*======================================================================
* SPICE Model generated by Coilcraft
* Coilcraft Part Number : 0603PS-272
* Inductance = 2.7uH
*======================================================================
* Model Parameters:
*   Valid Frequency Range = 0.1MHz-50MHz
*   Ambient Temperature = 25 degC
*   Inductor Impedance Model
*   Use model for Time Domain simulations
*======================================================================
.subckt 0603PS-272_imp port1 port2 PARAMS: Cpar=0.63pF Ind=2.7uH
X1 port1 port2 Model1D PARAMS:
+ R1=5580
+ R2=0.352
+ C= {Cpar}
+ K1=0.00000553
+ K2=0.96
+ K3= {Ind}
+ K4=0.0276
+ K5=0.00000978
+ L=0
+ Is=0
+ a=0
+ L_Z0=0
+ L_EL=0
+ L_F0=0E6
+ PkZ=1885.97696
.ends 0603PS-272_imp

*======================================================================
* SPICE Model generated by Coilcraft
* Coilcraft Part Number : 0603PS-332
* Inductance = 3.3uH
*======================================================================
* Model Parameters:
*   Valid Frequency Range = 0.1MHz-50MHz
*   Ambient Temperature = 25 degC
*   Inductor Frequency Model
*   Use model for Frequency Domain simulations
*======================================================================
.subckt 0603PS-332_freq port1 port2 PARAMS: Cpar=1.26pF Ind=3.3uH
X1 port1 port2 Model1A PARAMS:
+ R1=519
+ R2=0.437
+ C= {Cpar}
+ K1=0.00000444
+ K2=1.1
+ K3= {Ind}
+ K4=0.032
+ K5=0.0000102
+ L=0
+ Is=0
+ a=0
+ L_Z0=0
+ L_EL=0
+ L_F0=0E6
+ PkZ=3345.6678
.ends 0603PS-332_freq

*======================================================================
* SPICE Model generated by Coilcraft
* Coilcraft Part Number : 0603PS-332
* Inductance = 3.3uH
*======================================================================
* Model Parameters:
*   Valid Frequency Range = 0.1MHz-50MHz
*   Ambient Temperature = 25 degC
*   Inductor Impedance Model
*   Use model for Time Domain simulations
*======================================================================
.subckt 0603PS-332_imp port1 port2 PARAMS: Cpar=1.18pF Ind=3.3uH
X1 port1 port2 Model1D PARAMS:
+ R1=519
+ R2=0.437
+ C= {Cpar}
+ K1=0.00000444
+ K2=1.1
+ K3= {Ind}
+ K4=0.032
+ K5=0.0000102
+ L=0
+ Is=0
+ a=0
+ L_Z0=0
+ L_EL=0
+ L_F0=0E6
+ PkZ=3345.6678
.ends 0603PS-332_imp

*======================================================================
* SPICE Model generated by Coilcraft
* Coilcraft Part Number : 0603PS-392
* Inductance = 3.9uH
*======================================================================
* Model Parameters:
*   Valid Frequency Range = 0.1MHz-45MHz
*   Ambient Temperature = 25 degC
*   Inductor Frequency Model
*   Use model for Frequency Domain simulations
*======================================================================
.subckt 0603PS-392_freq port1 port2 PARAMS: Cpar=1.62pF Ind=3.9uH
X1 port1 port2 Model1A PARAMS:
+ R1=1740
+ R2=0.633
+ C= {Cpar}
+ K1=0.0000188
+ K2=1.62
+ K3= {Ind}
+ K4=0.0467
+ K5=0.0000102
+ L=0
+ Is=0
+ a=0
+ L_Z0=0
+ L_EL=0
+ L_F0=0E6
+ PkZ=1778.65299
.ends 0603PS-392_freq

*======================================================================
* SPICE Model generated by Coilcraft
* Coilcraft Part Number : 0603PS-392
* Inductance = 3.9uH
*======================================================================
* Model Parameters:
*   Valid Frequency Range = 0.1MHz-45MHz
*   Ambient Temperature = 25 degC
*   Inductor Impedance Model
*   Use model for Time Domain simulations
*======================================================================
.subckt 0603PS-392_imp port1 port2 PARAMS: Cpar=1.49pF Ind=3.9uH
X1 port1 port2 Model1D PARAMS:
+ R1=1740
+ R2=0.633
+ C= {Cpar}
+ K1=0.0000188
+ K2=1.62
+ K3= {Ind}
+ K4=0.0467
+ K5=0.0000102
+ L=0
+ Is=0
+ a=0
+ L_Z0=0
+ L_EL=0
+ L_F0=0E6
+ PkZ=1778.65299
.ends 0603PS-392_imp

*======================================================================
* SPICE Model generated by Coilcraft
* Coilcraft Part Number : 0603PS-472
* Inductance = 4.7uH
*======================================================================
* Model Parameters:
*   Valid Frequency Range = 0.1MHz-40MHz
*   Ambient Temperature = 25 degC
*   Inductor Frequency Model
*   Use model for Frequency Domain simulations
*======================================================================
.subckt 0603PS-472_freq port1 port2 PARAMS: Cpar=1.04pF Ind=4.7uH
X1 port1 port2 Model1A PARAMS:
+ R1=1440
+ R2=0.713
+ C= {Cpar}
+ K1=0.0000188
+ K2=1.56
+ K3= {Ind}
+ K4=0.0488
+ K5=0.0000102
+ L=0
+ Is=0
+ a=0
+ L_Z0=0
+ L_EL=0
+ L_F0=0E6
+ PkZ=2911.56757
.ends 0603PS-472_freq

*======================================================================
* SPICE Model generated by Coilcraft
* Coilcraft Part Number : 0603PS-472
* Inductance = 4.7uH
*======================================================================
* Model Parameters:
*   Valid Frequency Range = 0.1MHz-40MHz
*   Ambient Temperature = 25 degC
*   Inductor Impedance Model
*   Use model for Time Domain simulations
*======================================================================
.subckt 0603PS-472_imp port1 port2 PARAMS: Cpar=0.97pF Ind=4.7uH
X1 port1 port2 Model1D PARAMS:
+ R1=1440
+ R2=0.713
+ C= {Cpar}
+ K1=0.0000188
+ K2=1.56
+ K3= {Ind}
+ K4=0.0488
+ K5=0.0000102
+ L=0
+ Is=0
+ a=0
+ L_Z0=0
+ L_EL=0
+ L_F0=0E6
+ PkZ=2911.56757
.ends 0603PS-472_imp

*======================================================================
* SPICE Model generated by Coilcraft
* Coilcraft Part Number : 0603PS-562
* Inductance = 5.6uH
*======================================================================
* Model Parameters:
*   Valid Frequency Range = 0.1MHz-35MHz
*   Ambient Temperature = 25 degC
*   Inductor Frequency Model
*   Use model for Frequency Domain simulations
*======================================================================
.subckt 0603PS-562_freq port1 port2 PARAMS: Cpar=1.64pF Ind=5.6uH
X1 port1 port2 Model1A PARAMS:
+ R1=326
+ R2=0.713
+ C= {Cpar}
+ K1=0.0000094
+ K2=2.1
+ K3= {Ind}
+ K4=0.0488
+ K5=0.0000102
+ L=0
+ Is=0
+ a=0
+ L_Z0=0
+ L_EL=0
+ L_F0=0E6
+ PkZ=6114.08639
.ends 0603PS-562_freq

*======================================================================
* SPICE Model generated by Coilcraft
* Coilcraft Part Number : 0603PS-562
* Inductance = 5.6uH
*======================================================================
* Model Parameters:
*   Valid Frequency Range = 0.1MHz-35MHz
*   Ambient Temperature = 25 degC
*   Inductor Impedance Model
*   Use model for Time Domain simulations
*======================================================================
.subckt 0603PS-562_imp port1 port2 PARAMS: Cpar=1.55pF Ind=5.6uH
X1 port1 port2 Model1D PARAMS:
+ R1=326
+ R2=0.713
+ C= {Cpar}
+ K1=0.0000094
+ K2=2.1
+ K3= {Ind}
+ K4=0.0488
+ K5=0.0000102
+ L=0
+ Is=0
+ a=0
+ L_Z0=0
+ L_EL=0
+ L_F0=0E6
+ PkZ=6114.08639
.ends 0603PS-562_imp

*======================================================================
* SPICE Model generated by Coilcraft
* Coilcraft Part Number : 0603PS-682
* Inductance = 6.8uH
*======================================================================
* Model Parameters:
*   Valid Frequency Range = 0.1MHz-30MHz
*   Ambient Temperature = 25 degC
*   Inductor Frequency Model
*   Use model for Frequency Domain simulations
*======================================================================
.subckt 0603PS-682_freq port1 port2 PARAMS: Cpar=1.5pF Ind=6.8uH
X1 port1 port2 Model1B PARAMS:
+ R1=326
+ R2=0.727
+ C= {Cpar}
+ K1=0.0000088
+ K2=2.34
+ K3= {Ind}
+ K4=0
+ K5=0
+ L=0
+ Is=0
+ a=0
+ L_Z0=0
+ L_EL=0
+ L_F0=0E6
+ PkZ=7619.34677
.ends 0603PS-682_freq

*======================================================================
* SPICE Model generated by Coilcraft
* Coilcraft Part Number : 0603PS-682
* Inductance = 6.8uH
*======================================================================
* Model Parameters:
*   Valid Frequency Range = 0.1MHz-30MHz
*   Ambient Temperature = 25 degC
*   Inductor Impedance Model
*   Use model for Time Domain simulations
*======================================================================
.subckt 0603PS-682_imp port1 port2 PARAMS: Cpar=1.50pF Ind=6.8uH
X1 port1 port2 Model1D PARAMS:
+ R1=326
+ R2=0.727
+ C= {Cpar}
+ K1=0.0000088
+ K2=2.34
+ K3= {Ind}
+ K4=0
+ K5=0
+ L=0
+ Is=0
+ a=0
+ L_Z0=0
+ L_EL=0
+ L_F0=0E6
+ PkZ=7619.34677
.ends 0603PS-682_imp

*======================================================================
* SPICE Model generated by Coilcraft
* Coilcraft Part Number : 0603PS-822
* Inductance = 8.2uH
*======================================================================
* Model Parameters:
*   Valid Frequency Range = 0.1MHz-25MHz
*   Ambient Temperature = 25 degC
*   Inductor Frequency Model
*   Use model for Frequency Domain simulations
*======================================================================
.subckt 0603PS-822_freq port1 port2 PARAMS: Cpar=2pF Ind=8.2uH
X1 port1 port2 Model1B PARAMS:
+ R1=322
+ R2=0.935
+ C= {Cpar}
+ K1=0.00000489
+ K2=3.16
+ K3= {Ind}
+ K4=0
+ K5=0
+ L=0
+ Is=0
+ a=0
+ L_Z0=0
+ L_EL=0
+ L_F0=0E6
+ PkZ=7833.70052
.ends 0603PS-822_freq

*======================================================================
* SPICE Model generated by Coilcraft
* Coilcraft Part Number : 0603PS-822
* Inductance = 8.2uH
*======================================================================
* Model Parameters:
*   Valid Frequency Range = 0.1MHz-25MHz
*   Ambient Temperature = 25 degC
*   Inductor Impedance Model
*   Use model for Time Domain simulations
*======================================================================
.subckt 0603PS-822_imp port1 port2 PARAMS: Cpar=2.00pF Ind=8.2uH
X1 port1 port2 Model1D PARAMS:
+ R1=322
+ R2=0.935
+ C= {Cpar}
+ K1=0.00000489
+ K2=3.16
+ K3= {Ind}
+ K4=0
+ K5=0
+ L=0
+ Is=0
+ a=0
+ L_Z0=0
+ L_EL=0
+ L_F0=0E6
+ PkZ=7833.70052
.ends 0603PS-822_imp

*======================================================================
* SPICE Model generated by Coilcraft
* Coilcraft Part Number : 0603PS-103
* Inductance = 10uH
*======================================================================
* Model Parameters:
*   Valid Frequency Range = 0.1MHz-25MHz
*   Ambient Temperature = 25 degC
*   Inductor Frequency Model
*   Use model for Frequency Domain simulations
*======================================================================
.subckt 0603PS-103_freq port1 port2 PARAMS: Cpar=1.77pF Ind=10uH
X1 port1 port2 Model1B PARAMS:
+ R1=321
+ R2=0.935
+ C= {Cpar}
+ K1=0.00000489
+ K2=3.92
+ K3= {Ind}
+ K4=0
+ K5=0
+ L=0
+ Is=0
+ a=0
+ L_Z0=0
+ L_EL=0
+ L_F0=0E6
+ PkZ=10249.7634
.ends 0603PS-103_freq

*======================================================================
* SPICE Model generated by Coilcraft
* Coilcraft Part Number : 0603PS-103
* Inductance = 10uH
*======================================================================
* Model Parameters:
*   Valid Frequency Range = 0.1MHz-25MHz
*   Ambient Temperature = 25 degC
*   Inductor Impedance Model
*   Use model for Time Domain simulations
*======================================================================
.subckt 0603PS-103_imp port1 port2 PARAMS: Cpar=1.77pF Ind=10uH
X1 port1 port2 Model1D PARAMS:
+ R1=321
+ R2=0.935
+ C= {Cpar}
+ K1=0.00000489
+ K2=3.92
+ K3= {Ind}
+ K4=0
+ K5=0
+ L=0
+ Is=0
+ a=0
+ L_Z0=0
+ L_EL=0
+ L_F0=0E6
+ PkZ=10249.7634
.ends 0603PS-103_imp

*======================================================================
* SPICE Model generated by Coilcraft
* Coilcraft Part Number : 0603PS-153
* Inductance = 15uH
*======================================================================
* Model Parameters:
*   Valid Frequency Range = 0.1MHz-18MHz
*   Ambient Temperature = 25 degC
*   Inductor Frequency Model
*   Use model for Frequency Domain simulations
*======================================================================
.subckt 0603PS-153_freq port1 port2 PARAMS: Cpar=2.61pF Ind=15uH
X1 port1 port2 Model1B PARAMS:
+ R1=321
+ R2=1.54
+ C= {Cpar}
+ K1=0.00000412
+ K2=5.87
+ K3= {Ind}
+ K4=0
+ K5=0
+ L=0
+ Is=0
+ a=0
+ L_Z0=0
+ L_EL=0
+ L_F0=0E6
+ PkZ=11243.0684
.ends 0603PS-153_freq

*======================================================================
* SPICE Model generated by Coilcraft
* Coilcraft Part Number : 0603PS-153
* Inductance = 15uH
*======================================================================
* Model Parameters:
*   Valid Frequency Range = 0.1MHz-18MHz
*   Ambient Temperature = 25 degC
*   Inductor Impedance Model
*   Use model for Time Domain simulations
*======================================================================
.subckt 0603PS-153_imp port1 port2 PARAMS: Cpar=2.61pF Ind=15uH
X1 port1 port2 Model1D PARAMS:
+ R1=321
+ R2=1.54
+ C= {Cpar}
+ K1=0.00000412
+ K2=5.87
+ K3= {Ind}
+ K4=0
+ K5=0
+ L=0
+ Is=0
+ a=0
+ L_Z0=0
+ L_EL=0
+ L_F0=0E6
+ PkZ=11243.0684
.ends 0603PS-153_imp

*======================================================================
* SPICE Model generated by Coilcraft
* Coilcraft Part Number : 0603PS-223
* Inductance = 22uH
*======================================================================
* Model Parameters:
*   Valid Frequency Range = 0.1MHz-13MHz
*   Ambient Temperature = 25 degC
*   Inductor Frequency Model
*   Use model for Frequency Domain simulations
*======================================================================
.subckt 0603PS-223_freq port1 port2 PARAMS: Cpar=2.64pF Ind=22uH
X1 port1 port2 Model1B PARAMS:
+ R1=341
+ R2=2.48
+ C= {Cpar}
+ K1=0.00000412
+ K2=8.75
+ K3= {Ind}
+ K4=0
+ K5=0
+ L=0
+ Is=0
+ a=0
+ L_Z0=0
+ L_EL=0
+ L_F0=0E6
+ PkZ=15260.0322
.ends 0603PS-223_freq

*======================================================================
* SPICE Model generated by Coilcraft
* Coilcraft Part Number : 0603PS-223
* Inductance = 22uH
*======================================================================
* Model Parameters:
*   Valid Frequency Range = 0.1MHz-13MHz
*   Ambient Temperature = 25 degC
*   Inductor Impedance Model
*   Use model for Time Domain simulations
*======================================================================
.subckt 0603PS-223_imp port1 port2 PARAMS: Cpar=2.64pF Ind=22uH
X1 port1 port2 Model1D PARAMS:
+ R1=341
+ R2=2.48
+ C= {Cpar}
+ K1=0.00000412
+ K2=8.75
+ K3= {Ind}
+ K4=0
+ K5=0
+ L=0
+ Is=0
+ a=0
+ L_Z0=0
+ L_EL=0
+ L_F0=0E6
+ PkZ=15260.0322
.ends 0603PS-223_imp

*======================================================================
* SPICE Model generated by Coilcraft
* Coilcraft Part Number : 0603PS-333
* Inductance = 33uH
*======================================================================
* Model Parameters:
*   Valid Frequency Range = 0.1MHz-9MHz
*   Ambient Temperature = 25 degC
*   Inductor Frequency Model
*   Use model for Frequency Domain simulations
*======================================================================
.subckt 0603PS-333_freq port1 port2 PARAMS: Cpar=2.98pF Ind=33uH
X1 port1 port2 Model1B PARAMS:
+ R1=531
+ R2=4.66
+ C= {Cpar}
+ K1=0.000105
+ K2=15.7
+ K3= {Ind}
+ K4=0
+ K5=0
+ L=0
+ Is=0
+ a=0
+ L_Z0=0
+ L_EL=0
+ L_F0=0E6
+ PkZ=15842.4934
.ends 0603PS-333_freq

*======================================================================
* SPICE Model generated by Coilcraft
* Coilcraft Part Number : 0603PS-333
* Inductance = 33uH
*======================================================================
* Model Parameters:
*   Valid Frequency Range = 0.1MHz-9MHz
*   Ambient Temperature = 25 degC
*   Inductor Impedance Model
*   Use model for Time Domain simulations
*======================================================================
.subckt 0603PS-333_imp port1 port2 PARAMS: Cpar=2.98pF Ind=33uH
X1 port1 port2 Model1D PARAMS:
+ R1=531
+ R2=4.66
+ C= {Cpar}
+ K1=0.000105
+ K2=15.7
+ K3= {Ind}
+ K4=0
+ K5=0
+ L=0
+ Is=0
+ a=0
+ L_Z0=0
+ L_EL=0
+ L_F0=0E6
+ PkZ=15842.4934
.ends 0603PS-333_imp

*======================================================================
* SPICE Model generated by Coilcraft
* Coilcraft Part Number : 0603PS-473
* Inductance = 47uH
*======================================================================
* Model Parameters:
*   Valid Frequency Range = 0.1MHz-9MHz
*   Ambient Temperature = 25 degC
*   Inductor Frequency Model
*   Use model for Frequency Domain simulations
*======================================================================
.subckt 0603PS-473_freq port1 port2 PARAMS: Cpar=1.8pF Ind=47uH
X1 port1 port2 Model1B PARAMS:
+ R1=531
+ R2=4.43
+ C= {Cpar}
+ K1=0.000098
+ K2=21.7
+ K3= {Ind}
+ K4=0
+ K5=0
+ L=0
+ Is=0
+ a=0
+ L_Z0=0
+ L_EL=0
+ L_F0=0E6
+ PkZ=31970.9095
.ends 0603PS-473_freq

*======================================================================
* SPICE Model generated by Coilcraft
* Coilcraft Part Number : 0603PS-473
* Inductance = 47uH
*======================================================================
* Model Parameters:
*   Valid Frequency Range = 0.1MHz-9MHz
*   Ambient Temperature = 25 degC
*   Inductor Impedance Model
*   Use model for Time Domain simulations
*======================================================================
.subckt 0603PS-473_imp port1 port2 PARAMS: Cpar=1.80pF Ind=47uH
X1 port1 port2 Model1D PARAMS:
+ R1=531
+ R2=4.43
+ C= {Cpar}
+ K1=0.000098
+ K2=21.7
+ K3= {Ind}
+ K4=0
+ K5=0
+ L=0
+ Is=0
+ a=0
+ L_Z0=0
+ L_EL=0
+ L_F0=0E6
+ PkZ=31970.9095
.ends 0603PS-473_imp

*======================================================================
* SPICE Model generated by Coilcraft
* Coilcraft Impedance Inductor Model
*======================================================================
* Model Parameters:
*   Valid Frequency Range Varies by Inductor
*   Ambient Temperature = 25 degC
*   Time Domain Inductor Impedance Model
*======================================================================
.subckt Model1D Lin Lout PARAMS:
+ R1=1
+ R2=1
+ C=1
+ K3=1
+ PkZ=1
R2 Lin N001 {R2}
R3 N001 Lout {PkZ}
C1 N001 N002 {C}
R1 N002 Lout {R1}
L1 N001 Lout {K3}
.ends Model1D

*======================================================================
* SPICE Model generated by Coilcraft
* Coilcraft Power Inductor Model
*======================================================================
* Model Parameters:
*   Valid Frequency Range Varies by Inductor
*   Ambient Temperature = 25 degC
*   DC Bias Current = 0 A
*   Frequency Dependent Inductor Model
*======================================================================
.subckt Model1A Lin Lout PARAMS:
+ R1=1
+ R2=1
+ C=1
+ K1=1
+ K2=1
+ K3=1
+ K4=1
+ K5=1
R2 N001 Lin {R2}
R1 Lout N002 {R1}
C1 N002 N001 {C}
G_Rvar2 N001 Lout LAPLACE { V(N001, Lout) } {1/K2/(-S*S/4/PI^2)^0.25}
G_Rvar1 N001 N003 LAPLACE { V(N001, N003) } {1/K1/(-S*S/4/PI^2)^0.25}
G_Lvar N003 Lout  LAPLACE { V(N003, Lout) } {1/(S*1e-6*({K3*1e6}-({K4}*LOG({K5}*(sqrt(-S*S)/(2*pi))))))}
*This large resistance to ground has been added to prevent a floating node error
R3 N003 0 100Meg
.ends Model1A

*======================================================================
* SPICE Model generated by Coilcraft
* Coilcraft Power Inductor Model w/ constant L
*======================================================================
* Model Parameters:
*   Valid Frequency Range Varies by Inductor
*   Ambient Temperature = 25 degC
*   DC Bias Current = 0 A
*   Frequency Dependent Inductor Model
*======================================================================
.subckt Model1B Lin Lout PARAMS:
+ R1=1
+ R2=1
+ C=1
+ K1=1
+ K2=1
+ K3=1
R2 N001 Lin {R2}
R1 Lout N002 {R1}
C1 N002 N001 {C}
G_Rvar2 N001 Lout LAPLACE { V(N001, Lout) } {1/K2/(-S*S/4/PI^2)^0.25}
G_Rvar1 N001 N003 LAPLACE { V(N001, N003) } {1/K1/(-S*S/4/PI^2)^0.25}
L1 N003 Lout = {K3}
*This large resistance to ground has been added to prevent a floating node error
R3 N003 0 100Meg
.ends Model1B




.subckt Coilcraft_Inductor Lin Lout
R1 Lout Lin 100Meg
.ends Coilcraft_Inductor
