*======================================================================
* SPICE Model generated by Coilcraft
* Coilcraft Part Number : 0805PS-102
* Inductance = 1uH
*======================================================================
* Model Parameters:
*   Valid Frequency Range = 0.1MHz-50MHz
*   Ambient Temperature = 25 degC
*   Inductor Frequency Model
*   Use model for Frequency Domain simulations
*======================================================================
.subckt 0805PS-102_freq port1 port2 PARAMS: Cpar=6.8pF Ind=1uH
X1 port1 port2 Model1A PARAMS:
+ R1=1520
+ R2=0.057
+ C= {Cpar}
+ K1=1.27E-09
+ K2=0.171
+ K3= {Ind}
+ K4=0.0357
+ K5=0.00001
+ L=0
+ Is=0
+ a=0
+ L_Z0=0
+ L_EL=0
+ L_F0=0E6
+ PkZ=318.152899
.ends 0805PS-102_freq

*======================================================================
* SPICE Model generated by Coilcraft
* Coilcraft Part Number : 0805PS-102
* Inductance = 1uH
*======================================================================
* Model Parameters:
*   Valid Frequency Range = 0.1MHz-50MHz
*   Ambient Temperature = 25 degC
*   Inductor Impedance Model
*   Use model for Time Domain simulations
*======================================================================
.subckt 0805PS-102_imp port1 port2 PARAMS: Cpar=5.24pF Ind=1uH
X1 port1 port2 Model1D PARAMS:
+ R1=1520
+ R2=0.057
+ C= {Cpar}
+ K1=1.27E-09
+ K2=0.171
+ K3= {Ind}
+ K4=0.0357
+ K5=0.00001
+ L=0
+ Is=0
+ a=0
+ L_Z0=0
+ L_EL=0
+ L_F0=0E6
+ PkZ=318.152899
.ends 0805PS-102_imp

*======================================================================
* SPICE Model generated by Coilcraft
* Coilcraft Part Number : 0805PS-152
* Inductance = 1.5uH
*======================================================================
* Model Parameters:
*   Valid Frequency Range = 0.1MHz-50MHz
*   Ambient Temperature = 25 degC
*   Inductor Frequency Model
*   Use model for Frequency Domain simulations
*======================================================================
.subckt 0805PS-152_freq port1 port2 PARAMS: Cpar=8.98pF Ind=1.5uH
X1 port1 port2 Model1A PARAMS:
+ R1=1790
+ R2=0.058
+ C= {Cpar}
+ K1=1.48E-09
+ K2=0.228
+ K3= {Ind}
+ K4=0.0505
+ K5=0.0000103
+ L=0
+ Is=0
+ a=0
+ L_Z0=0
+ L_EL=0
+ L_F0=0E6
+ PkZ=345.553232
.ends 0805PS-152_freq

*======================================================================
* SPICE Model generated by Coilcraft
* Coilcraft Part Number : 0805PS-152
* Inductance = 1.5uH
*======================================================================
* Model Parameters:
*   Valid Frequency Range = 0.1MHz-50MHz
*   Ambient Temperature = 25 degC
*   Inductor Impedance Model
*   Use model for Time Domain simulations
*======================================================================
.subckt 0805PS-152_imp port1 port2 PARAMS: Cpar=7.14pF Ind=1.5uH
X1 port1 port2 Model1D PARAMS:
+ R1=1790
+ R2=0.058
+ C= {Cpar}
+ K1=1.48E-09
+ K2=0.228
+ K3= {Ind}
+ K4=0.0505
+ K5=0.0000103
+ L=0
+ Is=0
+ a=0
+ L_Z0=0
+ L_EL=0
+ L_F0=0E6
+ PkZ=345.553232
.ends 0805PS-152_imp

*======================================================================
* SPICE Model generated by Coilcraft
* Coilcraft Part Number : 0805PS-272
* Inductance = 2.7uH
*======================================================================
* Model Parameters:
*   Valid Frequency Range = 0.1MHz-50MHz
*   Ambient Temperature = 25 degC
*   Inductor Frequency Model
*   Use model for Frequency Domain simulations
*======================================================================
.subckt 0805PS-272_freq port1 port2 PARAMS: Cpar=29.3pF Ind=2.7uH
X1 port1 port2 Model1A PARAMS:
+ R1=3670
+ R2=0.058
+ C= {Cpar}
+ K1=2.26E-09
+ K2=0.386
+ K3= {Ind}
+ K4=0.0383
+ K5=0.00000974
+ L=0
+ Is=0
+ a=0
+ L_Z0=0
+ L_EL=0
+ L_F0=0E6
+ PkZ=284.739298
.ends 0805PS-272_freq

*======================================================================
* SPICE Model generated by Coilcraft
* Coilcraft Part Number : 0805PS-272
* Inductance = 2.7uH
*======================================================================
* Model Parameters:
*   Valid Frequency Range = 0.1MHz-50MHz
*   Ambient Temperature = 25 degC
*   Inductor Impedance Model
*   Use model for Time Domain simulations
*======================================================================
.subckt 0805PS-272_imp port1 port2 PARAMS: Cpar=27.16pF Ind=2.7uH
X1 port1 port2 Model1D PARAMS:
+ R1=3670
+ R2=0.058
+ C= {Cpar}
+ K1=2.26E-09
+ K2=0.386
+ K3= {Ind}
+ K4=0.0383
+ K5=0.00000974
+ L=0
+ Is=0
+ a=0
+ L_Z0=0
+ L_EL=0
+ L_F0=0E6
+ PkZ=284.739298
.ends 0805PS-272_imp

*======================================================================
* SPICE Model generated by Coilcraft
* Coilcraft Part Number : 0805PS-332
* Inductance = 3.3uH
*======================================================================
* Model Parameters:
*   Valid Frequency Range = 0.1MHz-50MHz
*   Ambient Temperature = 25 degC
*   Inductor Frequency Model
*   Use model for Frequency Domain simulations
*======================================================================
.subckt 0805PS-332_freq port1 port2 PARAMS: Cpar=92.1pF Ind=3.3uH
X1 port1 port2 Model1A PARAMS:
+ R1=3630
+ R2=0.167
+ C= {Cpar}
+ K1=0
+ K2=0.657
+ K3= {Ind}
+ K4=0.0939
+ K5=0.0000104
+ L=0
+ Is=0
+ a=0
+ L_Z0=0
+ L_EL=0
+ L_F0=0E6
+ PkZ=175.064446
.ends 0805PS-332_freq

*======================================================================
* SPICE Model generated by Coilcraft
* Coilcraft Part Number : 0805PS-332
* Inductance = 3.3uH
*======================================================================
* Model Parameters:
*   Valid Frequency Range = 0.1MHz-50MHz
*   Ambient Temperature = 25 degC
*   Inductor Impedance Model
*   Use model for Time Domain simulations
*======================================================================
.subckt 0805PS-332_imp port1 port2 PARAMS: Cpar=80.17pF Ind=3.3uH
X1 port1 port2 Model1D PARAMS:
+ R1=3630
+ R2=0.167
+ C= {Cpar}
+ K1=0
+ K2=0.657
+ K3= {Ind}
+ K4=0.0939
+ K5=0.0000104
+ L=0
+ Is=0
+ a=0
+ L_Z0=0
+ L_EL=0
+ L_F0=0E6
+ PkZ=175.064446
.ends 0805PS-332_imp

*======================================================================
* SPICE Model generated by Coilcraft
* Coilcraft Part Number : 0805PS-392
* Inductance = 3.9uH
*======================================================================
* Model Parameters:
*   Valid Frequency Range = 0.1MHz-50MHz
*   Ambient Temperature = 25 degC
*   Inductor Frequency Model
*   Use model for Frequency Domain simulations
*======================================================================
.subckt 0805PS-392_freq port1 port2 PARAMS: Cpar=184pF Ind=3.9uH
X1 port1 port2 Model1B PARAMS:
+ R1=4020
+ R2=0.34
+ C= {Cpar}
+ K1=0
+ K2=1.24
+ K3= {Ind}
+ K4=0
+ K5=0
+ L=0
+ Is=0
+ a=0
+ L_Z0=0
+ L_EL=0
+ L_F0=0E6
+ PkZ=145.290187
.ends 0805PS-392_freq

*======================================================================
* SPICE Model generated by Coilcraft
* Coilcraft Part Number : 0805PS-392
* Inductance = 3.9uH
*======================================================================
* Model Parameters:
*   Valid Frequency Range = 0.1MHz-50MHz
*   Ambient Temperature = 25 degC
*   Inductor Impedance Model
*   Use model for Time Domain simulations
*======================================================================
.subckt 0805PS-392_imp port1 port2 PARAMS: Cpar=184.00pF Ind=3.9uH
X1 port1 port2 Model1D PARAMS:
+ R1=4020
+ R2=0.34
+ C= {Cpar}
+ K1=0
+ K2=1.24
+ K3= {Ind}
+ K4=0
+ K5=0
+ L=0
+ Is=0
+ a=0
+ L_Z0=0
+ L_EL=0
+ L_F0=0E6
+ PkZ=145.290187
.ends 0805PS-392_imp

*======================================================================
* SPICE Model generated by Coilcraft
* Coilcraft Part Number : 0805PS-472
* Inductance = 4.7uH
*======================================================================
* Model Parameters:
*   Valid Frequency Range = 0.1MHz-50MHz
*   Ambient Temperature = 25 degC
*   Inductor Frequency Model
*   Use model for Frequency Domain simulations
*======================================================================
.subckt 0805PS-472_freq port1 port2 PARAMS: Cpar=232pF Ind=4.7uH
X1 port1 port2 Model1B PARAMS:
+ R1=4090
+ R2=0.414
+ C= {Cpar}
+ K1=0
+ K2=0.414
+ K3= {Ind}
+ K4=0
+ K5=0
+ L=0
+ Is=0
+ a=0
+ L_Z0=0
+ L_EL=0
+ L_F0=0E6
+ PkZ=140.038077
.ends 0805PS-472_freq

*======================================================================
* SPICE Model generated by Coilcraft
* Coilcraft Part Number : 0805PS-472
* Inductance = 4.7uH
*======================================================================
* Model Parameters:
*   Valid Frequency Range = 0.1MHz-50MHz
*   Ambient Temperature = 25 degC
*   Inductor Impedance Model
*   Use model for Time Domain simulations
*======================================================================
.subckt 0805PS-472_imp port1 port2 PARAMS: Cpar=232.00pF Ind=4.7uH
X1 port1 port2 Model1D PARAMS:
+ R1=4090
+ R2=0.414
+ C= {Cpar}
+ K1=0
+ K2=0.414
+ K3= {Ind}
+ K4=0
+ K5=0
+ L=0
+ Is=0
+ a=0
+ L_Z0=0
+ L_EL=0
+ L_F0=0E6
+ PkZ=140.038077
.ends 0805PS-472_imp

*======================================================================
* SPICE Model generated by Coilcraft
* Coilcraft Part Number : 0805PS-562
* Inductance = 5.6uH
*======================================================================
* Model Parameters:
*   Valid Frequency Range = 0.1MHz-50MHz
*   Ambient Temperature = 25 degC
*   Inductor Frequency Model
*   Use model for Frequency Domain simulations
*======================================================================
.subckt 0805PS-562_freq port1 port2 PARAMS: Cpar=200pF Ind=5.6uH
X1 port1 port2 Model1A PARAMS:
+ R1=7190
+ R2=0.11
+ C= {Cpar}
+ K1=0
+ K2=0.978
+ K3= {Ind}
+ K4=0.0577
+ K5=0.0000101
+ L=0
+ Is=0
+ a=0
+ L_Z0=0
+ L_EL=0
+ L_F0=0E6
+ PkZ=163.223937
.ends 0805PS-562_freq

*======================================================================
* SPICE Model generated by Coilcraft
* Coilcraft Part Number : 0805PS-562
* Inductance = 5.6uH
*======================================================================
* Model Parameters:
*   Valid Frequency Range = 0.1MHz-50MHz
*   Ambient Temperature = 25 degC
*   Inductor Impedance Model
*   Use model for Time Domain simulations
*======================================================================
.subckt 0805PS-562_imp port1 port2 PARAMS: Cpar=192.02pF Ind=5.6uH
X1 port1 port2 Model1D PARAMS:
+ R1=7190
+ R2=0.11
+ C= {Cpar}
+ K1=0
+ K2=0.978
+ K3= {Ind}
+ K4=0.0577
+ K5=0.0000101
+ L=0
+ Is=0
+ a=0
+ L_Z0=0
+ L_EL=0
+ L_F0=0E6
+ PkZ=163.223937
.ends 0805PS-562_imp

*======================================================================
* SPICE Model generated by Coilcraft
* Coilcraft Part Number : 0805PS-682
* Inductance = 6.8uH
*======================================================================
* Model Parameters:
*   Valid Frequency Range = 0.1MHz-50MHz
*   Ambient Temperature = 25 degC
*   Inductor Frequency Model
*   Use model for Frequency Domain simulations
*======================================================================
.subckt 0805PS-682_freq port1 port2 PARAMS: Cpar=260pF Ind=6.8uH
X1 port1 port2 Model1A PARAMS:
+ R1=7890
+ R2=0.101
+ C= {Cpar}
+ K1=0
+ K2=1.19
+ K3= {Ind}
+ K4=0.0725
+ K5=0.0000105
+ L=0
+ Is=0
+ a=0
+ L_Z0=0
+ L_EL=0
+ L_F0=0E6
+ PkZ=157.943874
.ends 0805PS-682_freq

*======================================================================
* SPICE Model generated by Coilcraft
* Coilcraft Part Number : 0805PS-682
* Inductance = 6.8uH
*======================================================================
* Model Parameters:
*   Valid Frequency Range = 0.1MHz-50MHz
*   Ambient Temperature = 25 degC
*   Inductor Impedance Model
*   Use model for Time Domain simulations
*======================================================================
.subckt 0805PS-682_imp port1 port2 PARAMS: Cpar=249.79pF Ind=6.8uH
X1 port1 port2 Model1D PARAMS:
+ R1=7890
+ R2=0.101
+ C= {Cpar}
+ K1=0
+ K2=1.19
+ K3= {Ind}
+ K4=0.0725
+ K5=0.0000105
+ L=0
+ Is=0
+ a=0
+ L_Z0=0
+ L_EL=0
+ L_F0=0E6
+ PkZ=157.943874
.ends 0805PS-682_imp

*======================================================================
* SPICE Model generated by Coilcraft
* Coilcraft Part Number : 0805PS-103
* Inductance = 10uH
*======================================================================
* Model Parameters:
*   Valid Frequency Range = 0.1MHz-50MHz
*   Ambient Temperature = 25 degC
*   Inductor Frequency Model
*   Use model for Frequency Domain simulations
*======================================================================
.subckt 0805PS-103_freq port1 port2 PARAMS: Cpar=256pF Ind=10uH
X1 port1 port2 Model1A PARAMS:
+ R1=12800
+ R2=0.161
+ C= {Cpar}
+ K1=0.00002
+ K2=2
+ K3= {Ind}
+ K4=0.0629
+ K5=0.00001
+ L=0
+ Is=0
+ a=0
+ L_Z0=0
+ L_EL=0
+ L_F0=0E6
+ PkZ=195.049205
.ends 0805PS-103_freq

*======================================================================
* SPICE Model generated by Coilcraft
* Coilcraft Part Number : 0805PS-103
* Inductance = 10uH
*======================================================================
* Model Parameters:
*   Valid Frequency Range = 0.1MHz-50MHz
*   Ambient Temperature = 25 degC
*   Inductor Impedance Model
*   Use model for Time Domain simulations
*======================================================================
.subckt 0805PS-103_imp port1 port2 PARAMS: Cpar=250.45pF Ind=10uH
X1 port1 port2 Model1D PARAMS:
+ R1=12800
+ R2=0.161
+ C= {Cpar}
+ K1=0.00002
+ K2=2
+ K3= {Ind}
+ K4=0.0629
+ K5=0.00001
+ L=0
+ Is=0
+ a=0
+ L_Z0=0
+ L_EL=0
+ L_F0=0E6
+ PkZ=195.049205
.ends 0805PS-103_imp

*======================================================================
* SPICE Model generated by Coilcraft
* Coilcraft Part Number : 0805PS-153
* Inductance = 15uH
*======================================================================
* Model Parameters:
*   Valid Frequency Range = 0.1MHz-25MHz
*   Ambient Temperature = 25 degC
*   Inductor Frequency Model
*   Use model for Frequency Domain simulations
*======================================================================
.subckt 0805PS-153_freq port1 port2 PARAMS: Cpar=0.186pF Ind=15uH
X1 port1 port2 Model1A PARAMS:
+ R1=3950
+ R2=0.3
+ C= {Cpar}
+ K1=0.0000226
+ K2=2.68
+ K3= {Ind}
+ K4=0.0439
+ K5=0.00000694
+ L=0
+ Is=0
+ a=0
+ L_Z0=0
+ L_EL=0
+ L_F0=0E6
+ PkZ=12214.3667
.ends 0805PS-153_freq

*======================================================================
* SPICE Model generated by Coilcraft
* Coilcraft Part Number : 0805PS-153
* Inductance = 15uH
*======================================================================
* Model Parameters:
*   Valid Frequency Range = 0.1MHz-25MHz
*   Ambient Temperature = 25 degC
*   Inductor Impedance Model
*   Use model for Time Domain simulations
*======================================================================
.subckt 0805PS-153_imp port1 port2 PARAMS: Cpar=0.18pF Ind=15uH
X1 port1 port2 Model1D PARAMS:
+ R1=3950
+ R2=0.3
+ C= {Cpar}
+ K1=0.0000226
+ K2=2.68
+ K3= {Ind}
+ K4=0.0439
+ K5=0.00000694
+ L=0
+ Is=0
+ a=0
+ L_Z0=0
+ L_EL=0
+ L_F0=0E6
+ PkZ=12214.3667
.ends 0805PS-153_imp

*======================================================================
* SPICE Model generated by Coilcraft
* Coilcraft Part Number : 0805PS-223
* Inductance = 22uH
*======================================================================
* Model Parameters:
*   Valid Frequency Range = 0.1MHz-17MHz
*   Ambient Temperature = 25 degC
*   Inductor Frequency Model
*   Use model for Frequency Domain simulations
*======================================================================
.subckt 0805PS-223_freq port1 port2 PARAMS: Cpar=0.19pF Ind=22uH
X1 port1 port2 Model1A PARAMS:
+ R1=2930
+ R2=3.95
+ C= {Cpar}
+ K1=0.0000146
+ K2=3.95
+ K3= {Ind}
+ K4=0.287
+ K5=0.00000865
+ L=0
+ Is=0
+ a=0
+ L_Z0=0
+ L_EL=0
+ L_F0=0E6
+ PkZ=18472.3225
.ends 0805PS-223_freq

*======================================================================
* SPICE Model generated by Coilcraft
* Coilcraft Part Number : 0805PS-223
* Inductance = 22uH
*======================================================================
* Model Parameters:
*   Valid Frequency Range = 0.1MHz-17MHz
*   Ambient Temperature = 25 degC
*   Inductor Impedance Model
*   Use model for Time Domain simulations
*======================================================================
.subckt 0805PS-223_imp port1 port2 PARAMS: Cpar=0.17pF Ind=22uH
X1 port1 port2 Model1D PARAMS:
+ R1=2930
+ R2=3.95
+ C= {Cpar}
+ K1=0.0000146
+ K2=3.95
+ K3= {Ind}
+ K4=0.287
+ K5=0.00000865
+ L=0
+ Is=0
+ a=0
+ L_Z0=0
+ L_EL=0
+ L_F0=0E6
+ PkZ=18472.3225
.ends 0805PS-223_imp

*======================================================================
* SPICE Model generated by Coilcraft
* Coilcraft Part Number : 0805PS-333
* Inductance = 33uH
*======================================================================
* Model Parameters:
*   Valid Frequency Range = 0.1MHz-15MHz
*   Ambient Temperature = 25 degC
*   Inductor Frequency Model
*   Use model for Frequency Domain simulations
*======================================================================
.subckt 0805PS-333_freq port1 port2 PARAMS: Cpar=0.753pF Ind=33uH
X1 port1 port2 Model1A PARAMS:
+ R1=3640
+ R2=0.773
+ C= {Cpar}
+ K1=0.0000182
+ K2=7.35
+ K3= {Ind}
+ K4=0.246
+ K5=0.000009
+ L=0
+ Is=0
+ a=0
+ L_Z0=0
+ L_EL=0
+ L_F0=0E6
+ PkZ=10300.8996
.ends 0805PS-333_freq

*======================================================================
* SPICE Model generated by Coilcraft
* Coilcraft Part Number : 0805PS-333
* Inductance = 33uH
*======================================================================
* Model Parameters:
*   Valid Frequency Range = 0.1MHz-15MHz
*   Ambient Temperature = 25 degC
*   Inductor Impedance Model
*   Use model for Time Domain simulations
*======================================================================
.subckt 0805PS-333_imp port1 port2 PARAMS: Cpar=0.72pF Ind=33uH
X1 port1 port2 Model1D PARAMS:
+ R1=3640
+ R2=0.773
+ C= {Cpar}
+ K1=0.0000182
+ K2=7.35
+ K3= {Ind}
+ K4=0.246
+ K5=0.000009
+ L=0
+ Is=0
+ a=0
+ L_Z0=0
+ L_EL=0
+ L_F0=0E6
+ PkZ=10300.8996
.ends 0805PS-333_imp

*======================================================================
* SPICE Model generated by Coilcraft
* Coilcraft Part Number : 0805PS-473
* Inductance = 47uH
*======================================================================
* Model Parameters:
*   Valid Frequency Range = 0.1MHz-12MHz
*   Ambient Temperature = 25 degC
*   Inductor Frequency Model
*   Use model for Frequency Domain simulations
*======================================================================
.subckt 0805PS-473_freq port1 port2 PARAMS: Cpar=0.664pF Ind=47uH
X1 port1 port2 Model1A PARAMS:
+ R1=3040
+ R2=0.855
+ C= {Cpar}
+ K1=0.0000201
+ K2=8.58
+ K3= {Ind}
+ K4=0.537
+ K5=0.00000999
+ L=0
+ Is=0
+ a=0
+ L_Z0=0
+ L_EL=0
+ L_F0=0E6
+ PkZ=15727.8656
.ends 0805PS-473_freq

*======================================================================
* SPICE Model generated by Coilcraft
* Coilcraft Part Number : 0805PS-473
* Inductance = 47uH
*======================================================================
* Model Parameters:
*   Valid Frequency Range = 0.1MHz-12MHz
*   Ambient Temperature = 25 degC
*   Inductor Impedance Model
*   Use model for Time Domain simulations
*======================================================================
.subckt 0805PS-473_imp port1 port2 PARAMS: Cpar=0.62pF Ind=47uH
X1 port1 port2 Model1D PARAMS:
+ R1=3040
+ R2=0.855
+ C= {Cpar}
+ K1=0.0000201
+ K2=8.58
+ K3= {Ind}
+ K4=0.537
+ K5=0.00000999
+ L=0
+ Is=0
+ a=0
+ L_Z0=0
+ L_EL=0
+ L_F0=0E6
+ PkZ=15727.8656
.ends 0805PS-473_imp

*======================================================================
* SPICE Model generated by Coilcraft
* Coilcraft Part Number : 0805PS-683
* Inductance = 68uH
*======================================================================
* Model Parameters:
*   Valid Frequency Range = 0.1MHz-9MHz
*   Ambient Temperature = 25 degC
*   Inductor Frequency Model
*   Use model for Frequency Domain simulations
*======================================================================
.subckt 0805PS-683_freq port1 port2 PARAMS: Cpar=0.853pF Ind=68uH
X1 port1 port2 Model1A PARAMS:
+ R1=2240
+ R2=1.04
+ C= {Cpar}
+ K1=0.0000195
+ K2=13.2
+ K3= {Ind}
+ K4=0.546
+ K5=0.00000992
+ L=0
+ Is=0
+ a=0
+ L_Z0=0
+ L_EL=0
+ L_F0=0E6
+ PkZ=22470.2295
.ends 0805PS-683_freq

*======================================================================
* SPICE Model generated by Coilcraft
* Coilcraft Part Number : 0805PS-683
* Inductance = 68uH
*======================================================================
* Model Parameters:
*   Valid Frequency Range = 0.1MHz-9MHz
*   Ambient Temperature = 25 degC
*   Inductor Impedance Model
*   Use model for Time Domain simulations
*======================================================================
.subckt 0805PS-683_imp port1 port2 PARAMS: Cpar=0.82pF Ind=68uH
X1 port1 port2 Model1D PARAMS:
+ R1=2240
+ R2=1.04
+ C= {Cpar}
+ K1=0.0000195
+ K2=13.2
+ K3= {Ind}
+ K4=0.546
+ K5=0.00000992
+ L=0
+ Is=0
+ a=0
+ L_Z0=0
+ L_EL=0
+ L_F0=0E6
+ PkZ=22470.2295
.ends 0805PS-683_imp

*======================================================================
* SPICE Model generated by Coilcraft
* Coilcraft Part Number : 0805PS-823
* Inductance = 82uH
*======================================================================
* Model Parameters:
*   Valid Frequency Range = 0.1MHz-9MHz
*   Ambient Temperature = 25 degC
*   Inductor Frequency Model
*   Use model for Frequency Domain simulations
*======================================================================
.subckt 0805PS-823_freq port1 port2 PARAMS: Cpar=0.54pF Ind=82uH
X1 port1 port2 Model1B PARAMS:
+ R1=5390
+ R2=1.4
+ C= {Cpar}
+ K1=0.0000239
+ K2=17.1
+ K3= {Ind}
+ K4=0
+ K5=0
+ L=0
+ Is=0
+ a=0
+ L_Z0=0
+ L_EL=0
+ L_F0=0E6
+ PkZ=22863.7981
.ends 0805PS-823_freq

*======================================================================
* SPICE Model generated by Coilcraft
* Coilcraft Part Number : 0805PS-823
* Inductance = 82uH
*======================================================================
* Model Parameters:
*   Valid Frequency Range = 0.1MHz-9MHz
*   Ambient Temperature = 25 degC
*   Inductor Impedance Model
*   Use model for Time Domain simulations
*======================================================================
.subckt 0805PS-823_imp port1 port2 PARAMS: Cpar=0.54pF Ind=82uH
X1 port1 port2 Model1D PARAMS:
+ R1=5390
+ R2=1.4
+ C= {Cpar}
+ K1=0.0000239
+ K2=17.1
+ K3= {Ind}
+ K4=0
+ K5=0
+ L=0
+ Is=0
+ a=0
+ L_Z0=0
+ L_EL=0
+ L_F0=0E6
+ PkZ=22863.7981
.ends 0805PS-823_imp

*======================================================================
* SPICE Model generated by Coilcraft
* Coilcraft Part Number : 0805PS-104
* Inductance = 100uH
*======================================================================
* Model Parameters:
*   Valid Frequency Range = 0.1MHz-7MHz
*   Ambient Temperature = 25 degC
*   Inductor Frequency Model
*   Use model for Frequency Domain simulations
*======================================================================
.subckt 0805PS-104_freq port1 port2 PARAMS: Cpar=1.2pF Ind=100uH
X1 port1 port2 Model1B PARAMS:
+ R1=3860
+ R2=2.31
+ C= {Cpar}
+ K1=0.000026
+ K2=23.9
+ K3= {Ind}
+ K4=0
+ K5=0
+ L=0
+ Is=0
+ a=0
+ L_Z0=0
+ L_EL=0
+ L_F0=0E6
+ PkZ=18888.9319
.ends 0805PS-104_freq

*======================================================================
* SPICE Model generated by Coilcraft
* Coilcraft Part Number : 0805PS-104
* Inductance = 100uH
*======================================================================
* Model Parameters:
*   Valid Frequency Range = 0.1MHz-7MHz
*   Ambient Temperature = 25 degC
*   Inductor Impedance Model
*   Use model for Time Domain simulations
*======================================================================
.subckt 0805PS-104_imp port1 port2 PARAMS: Cpar=1.20pF Ind=100uH
X1 port1 port2 Model1D PARAMS:
+ R1=3860
+ R2=2.31
+ C= {Cpar}
+ K1=0.000026
+ K2=23.9
+ K3= {Ind}
+ K4=0
+ K5=0
+ L=0
+ Is=0
+ a=0
+ L_Z0=0
+ L_EL=0
+ L_F0=0E6
+ PkZ=18888.9319
.ends 0805PS-104_imp

*======================================================================
* SPICE Model generated by Coilcraft
* Coilcraft Part Number : 0805PS-124
* Inductance = 120uH
*======================================================================
* Model Parameters:
*   Valid Frequency Range = 0.1MHz-6.5MHz
*   Ambient Temperature = 25 degC
*   Inductor Frequency Model
*   Use model for Frequency Domain simulations
*======================================================================
.subckt 0805PS-124_freq port1 port2 PARAMS: Cpar=1.1pF Ind=120uH
X1 port1 port2 Model1B PARAMS:
+ R1=3000
+ R2=2.42
+ C= {Cpar}
+ K1=0.0000361
+ K2=27.3
+ K3= {Ind}
+ K4=0
+ K5=0
+ L=0
+ Is=0
+ a=0
+ L_Z0=0
+ L_EL=0
+ L_F0=0E6
+ PkZ=27784.42
.ends 0805PS-124_freq

*======================================================================
* SPICE Model generated by Coilcraft
* Coilcraft Part Number : 0805PS-124
* Inductance = 120uH
*======================================================================
* Model Parameters:
*   Valid Frequency Range = 0.1MHz-6.5MHz
*   Ambient Temperature = 25 degC
*   Inductor Impedance Model
*   Use model for Time Domain simulations
*======================================================================
.subckt 0805PS-124_imp port1 port2 PARAMS: Cpar=1.10pF Ind=120uH
X1 port1 port2 Model1D PARAMS:
+ R1=3000
+ R2=2.42
+ C= {Cpar}
+ K1=0.0000361
+ K2=27.3
+ K3= {Ind}
+ K4=0
+ K5=0
+ L=0
+ Is=0
+ a=0
+ L_Z0=0
+ L_EL=0
+ L_F0=0E6
+ PkZ=27784.42
.ends 0805PS-124_imp

*======================================================================
* SPICE Model generated by Coilcraft
* Coilcraft Part Number : 0805PS-154
* Inductance = 150uH
*======================================================================
* Model Parameters:
*   Valid Frequency Range = 0.1MHz-4MHz
*   Ambient Temperature = 25 degC
*   Inductor Frequency Model
*   Use model for Frequency Domain simulations
*======================================================================
.subckt 0805PS-154_freq port1 port2 PARAMS: Cpar=3.46pF Ind=150uH
X1 port1 port2 Model1B PARAMS:
+ R1=1070
+ R2=3.93
+ C= {Cpar}
+ K1=0.0000503
+ K2=37.4
+ K3= {Ind}
+ K4=0
+ K5=0
+ L=0
+ Is=0
+ a=0
+ L_Z0=0
+ L_EL=0
+ L_F0=0E6
+ PkZ=29083.6953
.ends 0805PS-154_freq

*======================================================================
* SPICE Model generated by Coilcraft
* Coilcraft Part Number : 0805PS-154
* Inductance = 150uH
*======================================================================
* Model Parameters:
*   Valid Frequency Range = 0.1MHz-4MHz
*   Ambient Temperature = 25 degC
*   Inductor Impedance Model
*   Use model for Time Domain simulations
*======================================================================
.subckt 0805PS-154_imp port1 port2 PARAMS: Cpar=3.46pF Ind=150uH
X1 port1 port2 Model1D PARAMS:
+ R1=1070
+ R2=3.93
+ C= {Cpar}
+ K1=0.0000503
+ K2=37.4
+ K3= {Ind}
+ K4=0
+ K5=0
+ L=0
+ Is=0
+ a=0
+ L_Z0=0
+ L_EL=0
+ L_F0=0E6
+ PkZ=29083.6953
.ends 0805PS-154_imp

*======================================================================
* SPICE Model generated by Coilcraft
* Coilcraft Part Number : 0805PS-224
* Inductance = 220uH
*======================================================================
* Model Parameters:
*   Valid Frequency Range = 0.1MHz-4MHz
*   Ambient Temperature = 25 degC
*   Inductor Frequency Model
*   Use model for Frequency Domain simulations
*======================================================================
.subckt 0805PS-224_freq port1 port2 PARAMS: Cpar=2.43pF Ind=220uH
X1 port1 port2 Model1B PARAMS:
+ R1=1010
+ R2=2.9
+ C= {Cpar}
+ K1=0.0000557
+ K2=53.6
+ K3= {Ind}
+ K4=0
+ K5=0
+ L=0
+ Is=0
+ a=0
+ L_Z0=0
+ L_EL=0
+ L_F0=0E6
+ PkZ=55002.3442
.ends 0805PS-224_freq

*======================================================================
* SPICE Model generated by Coilcraft
* Coilcraft Part Number : 0805PS-224
* Inductance = 220uH
*======================================================================
* Model Parameters:
*   Valid Frequency Range = 0.1MHz-4MHz
*   Ambient Temperature = 25 degC
*   Inductor Impedance Model
*   Use model for Time Domain simulations
*======================================================================
.subckt 0805PS-224_imp port1 port2 PARAMS: Cpar=2.43pF Ind=220uH
X1 port1 port2 Model1D PARAMS:
+ R1=1010
+ R2=2.9
+ C= {Cpar}
+ K1=0.0000557
+ K2=53.6
+ K3= {Ind}
+ K4=0
+ K5=0
+ L=0
+ Is=0
+ a=0
+ L_Z0=0
+ L_EL=0
+ L_F0=0E6
+ PkZ=55002.3442
.ends 0805PS-224_imp

*======================================================================
* SPICE Model generated by Coilcraft
* Coilcraft Part Number : 0805PS-334
* Inductance = 330uH
*======================================================================
* Model Parameters: