*======================================================================
* SPICE Model generated by Coilcraft
* Coilcraft Part Number : 0805CS-020
* Inductance = 2.75nH
*======================================================================
* Model Parameters:
*   Valid Frequency Range = 0.001GHz-17.2GHz
*   Ambient Temperature = 25 degC
*   Inductor Frequency Model
*   Use model for Frequency Domain simulations
*======================================================================
.subckt 0805CS-020_freq port1 port2 PARAMS: Cpar=0.038pF Ind=2.75nH
X1 port1 port2 Model2A PARAMS:
+ R1=1
+ R2=0.06
+ C= {Cpar}
+ K1=0.0000064
+ K2=0
+ K3= {Ind}
+ K4=0
+ K5=0
+ L=0
+ Is=0
+ a=0
+ L_Z0=0
+ L_EL=0
+ L_F0=0E6
+ PkZ=40237.2411
.ends 0805CS-020_freq

*======================================================================
* SPICE Model generated by Coilcraft
* Coilcraft Part Number : 0805CS-3N0
* Inductance = 3nH
*======================================================================
* Model Parameters:
*   Valid Frequency Range = 0.001GHz-16GHz
*   Ambient Temperature = 25 degC
*   Inductor Frequency Model
*   Use model for Frequency Domain simulations
*======================================================================
.subckt 0805CS-3N0_freq port1 port2 PARAMS: Cpar=0.04pF Ind=3nH
X1 port1 port2 Model2A PARAMS:
+ R1=2
+ R2=0.06
+ C= {Cpar}
+ K1=0.0000089
+ K2=0
+ K3= {Ind}
+ K4=0
+ K5=0
+ L=0
+ Is=0
+ a=0
+ L_Z0=0
+ L_EL=0
+ L_F0=0E6
+ PkZ=24408.8786
.ends 0805CS-3N0_freq

*======================================================================
* SPICE Model generated by Coilcraft
* Coilcraft Part Number : 0805CS-030
* Inductance = 3.3nH
*======================================================================
* Model Parameters:
*   Valid Frequency Range = 0.001GHz-14.9GHz
*   Ambient Temperature = 25 degC
*   Inductor Frequency Model
*   Use model for Frequency Domain simulations
*======================================================================
.subckt 0805CS-030_freq port1 port2 PARAMS: Cpar=0.042pF Ind=3.3nH
X1 port1 port2 Model2A PARAMS:
+ R1=3
+ R2=0.08
+ C= {Cpar}
+ K1=0.0000122
+ K2=0
+ K3= {Ind}
+ K4=0
+ K5=0
+ L=0
+ Is=0
+ a=0
+ L_Z0=0
+ L_EL=0
+ L_F0=0E6
+ PkZ=17783.7052
.ends 0805CS-030_freq

*======================================================================
* SPICE Model generated by Coilcraft
* Coilcraft Part Number : 0805CS-050
* Inductance = 5.66nH
*======================================================================
* Model Parameters:
*   Valid Frequency Range = 0.001GHz-10.4GHz
*   Ambient Temperature = 25 degC
*   Inductor Frequency Model
*   Use model for Frequency Domain simulations
*======================================================================
.subckt 0805CS-050_freq port1 port2 PARAMS: Cpar=0.051pF Ind=5.66nH
X1 port1 port2 Model2A PARAMS:
+ R1=4
+ R2=0.08
+ C= {Cpar}
+ K1=0.0000136
+ K2=0
+ K3= {Ind}
+ K4=0
+ K5=0
+ L=0
+ Is=0
+ a=0
+ L_Z0=0
+ L_EL=0
+ L_F0=0E6
+ PkZ=20877.2724
.ends 0805CS-050_freq

*======================================================================
* SPICE Model generated by Coilcraft
* Coilcraft Part Number : 0805CS-060
* Inductance = 6.72nH
*======================================================================
* Model Parameters:
*   Valid Frequency Range = 0.001GHz-10.6GHz
*   Ambient Temperature = 25 degC
*   Inductor Frequency Model
*   Use model for Frequency Domain simulations
*======================================================================
.subckt 0805CS-060_freq port1 port2 PARAMS: Cpar=0.041pF Ind=6.72nH
X1 port1 port2 Model2A PARAMS:
+ R1=5
+ R2=0.11
+ C= {Cpar}
+ K1=0.0000207
+ K2=0
+ K3= {Ind}
+ K4=0
+ K5=0
+ L=0
+ Is=0
+ a=0
+ L_Z0=0
+ L_EL=0
+ L_F0=0E6
+ PkZ=23327.0282
.ends 0805CS-060_freq

*======================================================================
* SPICE Model generated by Coilcraft
* Coilcraft Part Number : 0805CS-070
* Inductance = 7.65nH
*======================================================================
* Model Parameters:
*   Valid Frequency Range = 0.001GHz-7.9GHz
*   Ambient Temperature = 25 degC
*   Inductor Frequency Model
*   Use model for Frequency Domain simulations
*======================================================================
.subckt 0805CS-070_freq port1 port2 PARAMS: Cpar=0.065pF Ind=7.65nH
X1 port1 port2 Model2A PARAMS:
+ R1=5
+ R2=0.14
+ C= {Cpar}
+ K1=0.0000222
+ K2=0
+ K3= {Ind}
+ K4=0
+ K5=0
+ L=0
+ Is=0
+ a=0
+ L_Z0=0
+ L_EL=0
+ L_F0=0E6
+ PkZ=17119.8252
.ends 0805CS-070_freq

*======================================================================
* SPICE Model generated by Coilcraft
* Coilcraft Part Number : 0805CS-080
* Inductance = 8.05nH
*======================================================================
* Model Parameters:
*   Valid Frequency Range = 0.001GHz-7.1GHz
*   Ambient Temperature = 25 degC
*   Inductor Frequency Model
*   Use model for Frequency Domain simulations
*======================================================================
.subckt 0805CS-080_freq port1 port2 PARAMS: Cpar=0.076pF Ind=8.05nH
X1 port1 port2 Model2A PARAMS:
+ R1=7
+ R2=0.12
+ C= {Cpar}
+ K1=0.0000234
+ K2=0
+ K3= {Ind}
+ K4=0
+ K5=0
+ L=0
+ Is=0
+ a=0
+ L_Z0=0
+ L_EL=0
+ L_F0=0E6
+ PkZ=11935.1016
.ends 0805CS-080_freq

*======================================================================
* SPICE Model generated by Coilcraft
* Coilcraft Part Number : 0805CS-100
* Inductance = 10.1nH
*======================================================================
* Model Parameters:
*   Valid Frequency Range = 0.001GHz-8.1GHz
*   Ambient Temperature = 25 degC
*   Inductor Frequency Model
*   Use model for Frequency Domain simulations
*======================================================================
.subckt 0805CS-100_freq port1 port2 PARAMS: Cpar=0.047pF Ind=10.1nH
X1 port1 port2 Model2A PARAMS:
+ R1=6
+ R2=0.1
+ C= {Cpar}
+ K1=0.0000172
+ K2=0
+ K3= {Ind}
+ K4=0
+ K5=0
+ L=0
+ Is=0
+ a=0
+ L_Z0=0
+ L_EL=0
+ L_F0=0E6
+ PkZ=28769.9924
.ends 0805CS-100_freq

*======================================================================
* SPICE Model generated by Coilcraft
* Coilcraft Part Number : 0805CS-120
* Inductance = 12nH
*======================================================================
* Model Parameters:
*   Valid Frequency Range = 0.001GHz-7.1GHz
*   Ambient Temperature = 25 degC
*   Inductor Frequency Model
*   Use model for Frequency Domain simulations
*======================================================================
.subckt 0805CS-120_freq port1 port2 PARAMS: Cpar=0.051pF Ind=12nH
X1 port1 port2 Model2A PARAMS:
+ R1=12
+ R2=0.15
+ C= {Cpar}
+ K1=0.0000244
+ K2=0
+ K3= {Ind}
+ K4=0
+ K5=0
+ L=0
+ Is=0
+ a=0
+ L_Z0=0
+ L_EL=0
+ L_F0=0E6
+ PkZ=16863.8317
.ends 0805CS-120_freq

*======================================================================
* SPICE Model generated by Coilcraft
* Coilcraft Part Number : 0805CS-150
* Inductance = 15nH
*======================================================================
* Model Parameters:
*   Valid Frequency Range = 0.001GHz-4.7GHz
*   Ambient Temperature = 25 degC
*   Inductor Frequency Model
*   Use model for Frequency Domain simulations
*======================================================================
.subckt 0805CS-150_freq port1 port2 PARAMS: Cpar=0.096pF Ind=15nH
X1 port1 port2 Model2A PARAMS:
+ R1=10
+ R2=0.17
+ C= {Cpar}
+ K1=0.0000304
+ K2=0
+ K3= {Ind}
+ K4=0
+ K5=0
+ L=0
+ Is=0
+ a=0
+ L_Z0=0
+ L_EL=0
+ L_F0=0E6
+ PkZ=13059.3268
.ends 0805CS-150_freq

*======================================================================
* SPICE Model generated by Coilcraft
* Coilcraft Part Number : 0805CS-180
* Inductance = 18nH
*======================================================================
* Model Parameters:
*   Valid Frequency Range = 0.001GHz-5.4GHz
*   Ambient Temperature = 25 degC
*   Inductor Frequency Model
*   Use model for Frequency Domain simulations
*======================================================================
.subckt 0805CS-180_freq port1 port2 PARAMS: Cpar=0.059pF Ind=18nH
X1 port1 port2 Model2A PARAMS:
+ R1=10
+ R2=0.2
+ C= {Cpar}
+ K1=0.0000369
+ K2=0
+ K3= {Ind}
+ K4=0
+ K5=0
+ L=0
+ Is=0
+ a=0
+ L_Z0=0
+ L_EL=0
+ L_F0=0E6
+ PkZ=24258.4631
.ends 0805CS-180_freq

*======================================================================
* SPICE Model generated by Coilcraft
* Coilcraft Part Number : 0805CS-220
* Inductance = 22nH
*======================================================================
* Model Parameters:
*   Valid Frequency Range = 0.001GHz-3.9GHz
*   Ambient Temperature = 25 degC
*   Inductor Frequency Model
*   Use model for Frequency Domain simulations
*======================================================================
.subckt 0805CS-220_freq port1 port2 PARAMS: Cpar=0.093pF Ind=22nH
X1 port1 port2 Model2A PARAMS:
+ R1=12
+ R2=0.22
+ C= {Cpar}
+ K1=0.0000417
+ K2=0
+ K3= {Ind}
+ K4=0
+ K5=0
+ L=0
+ Is=0
+ a=0
+ L_Z0=0
+ L_EL=0
+ L_F0=0E6
+ PkZ=16349.6488
.ends 0805CS-220_freq

*======================================================================
* SPICE Model generated by Coilcraft
* Coilcraft Part Number : 0805CS-240
* Inductance = 24nH
*======================================================================
* Model Parameters:
*   Valid Frequency Range = 0.001GHz-3.5GHz
*   Ambient Temperature = 25 degC
*   Inductor Frequency Model
*   Use model for Frequency Domain simulations
*======================================================================
.subckt 0805CS-240_freq port1 port2 PARAMS: Cpar=0.11pF Ind=24nH
X1 port1 port2 Model2A PARAMS:
+ R1=12
+ R2=0.22
+ C= {Cpar}
+ K1=0.0000501
+ K2=0
+ K3= {Ind}
+ K4=0
+ K5=0
+ L=0
+ Is=0
+ a=0
+ L_Z0=0
+ L_EL=0
+ L_F0=0E6
+ PkZ=14758.9819
.ends 0805CS-240_freq

*======================================================================
* SPICE Model generated by Coilcraft
* Coilcraft Part Number : 0805CS-270
* Inductance = 27nH
*======================================================================
* Model Parameters:
*   Valid Frequency Range = 0.001GHz-4.2GHz
*   Ambient Temperature = 25 degC
*   Inductor Frequency Model
*   Use model for Frequency Domain simulations
*======================================================================
.subckt 0805CS-270_freq port1 port2 PARAMS: Cpar=0.067pF Ind=27nH
X1 port1 port2 Model2A PARAMS:
+ R1=14
+ R2=0.25
+ C= {Cpar}
+ K1=0.0000515
+ K2=0
+ K3= {Ind}
+ K4=0
+ K5=0
+ L=0
+ Is=0
+ a=0
+ L_Z0=0
+ L_EL=0
+ L_F0=0E6
+ PkZ=23503.4562
.ends 0805CS-270_freq

*======================================================================
* SPICE Model generated by Coilcraft
* Coilcraft Part Number : 0805CS-330
* Inductance = 33nH
*======================================================================
* Model Parameters:
*   Valid Frequency Range = 0.001GHz-3.1GHz
*   Ambient Temperature = 25 degC
*   Inductor Frequency Model
*   Use model for Frequency Domain simulations
*======================================================================
.subckt 0805CS-330_freq port1 port2 PARAMS: Cpar=0.097pF Ind=33nH
X1 port1 port2 Model2A PARAMS:
+ R1=12
+ R2=0.27
+ C= {Cpar}
+ K1=0.0000571
+ K2=0
+ K3= {Ind}
+ K4=0
+ K5=0
+ L=0
+ Is=0
+ a=0
+ L_Z0=0
+ L_EL=0
+ L_F0=0E6
+ PkZ=22642.796
.ends 0805CS-330_freq

*======================================================================
* SPICE Model generated by Coilcraft
* Coilcraft Part Number : 0805CS-360
* Inductance = 36nH
*======================================================================
* Model Parameters:
*   Valid Frequency Range = 0.001GHz-2.7GHz
*   Ambient Temperature = 25 degC
*   Inductor Frequency Model
*   Use model for Frequency Domain simulations
*======================================================================
.subckt 0805CS-360_freq port1 port2 PARAMS: Cpar=0.126pF Ind=36nH
X1 port1 port2 Model2A PARAMS:
+ R1=13
+ R2=0.27
+ C= {Cpar}
+ K1=0.0000671
+ K2=0
+ K3= {Ind}
+ K4=0
+ K5=0
+ L=0
+ Is=0
+ a=0
+ L_Z0=0
+ L_EL=0
+ L_F0=0E6
+ PkZ=17575.3949
.ends 0805CS-360_freq

*======================================================================
* SPICE Model generated by Coilcraft
* Coilcraft Part Number : 0805CS-390
* Inductance = 39nH
*======================================================================
* Model Parameters:
*   Valid Frequency Range = 0.001GHz-3.4GHz
*   Ambient Temperature = 25 degC
*   Inductor Frequency Model
*   Use model for Frequency Domain simulations
*======================================================================
.subckt 0805CS-390_freq port1 port2 PARAMS: Cpar=0.082pF Ind=39nH
X1 port1 port2 Model2A PARAMS:
+ R1=13
+ R2=0.29
+ C= {Cpar}
+ K1=0.0000681
+ K2=0
+ K3= {Ind}
+ K4=0
+ K5=0
+ L=0
+ Is=0
+ a=0
+ L_Z0=0
+ L_EL=0
+ L_F0=0E6
+ PkZ=28634.9739
.ends 0805CS-390_freq

*======================================================================
* SPICE Model generated by Coilcraft
* Coilcraft Part Number : 0805CS-430
* Inductance = 43nH
*======================================================================
* Model Parameters:
*   Valid Frequency Range = 0.001GHz-3.2GHz
*   Ambient Temperature = 25 degC
*   Inductor Frequency Model
*   Use model for Frequency Domain simulations
*======================================================================
.subckt 0805CS-430_freq port1 port2 PARAMS: Cpar=0.084pF Ind=43nH
X1 port1 port2 Model2A PARAMS:
+ R1=15
+ R2=0.31
+ C= {Cpar}
+ K1=0.0000751
+ K2=0
+ K3= {Ind}
+ K4=0
+ K5=0
+ L=0
+ Is=0
+ a=0
+ L_Z0=0
+ L_EL=0
+ L_F0=0E6
+ PkZ=27142.2927
.ends 0805CS-430_freq

*======================================================================
* SPICE Model generated by Coilcraft
* Coilcraft Part Number : 0805CS-470
* Inductance = 47nH
*======================================================================
* Model Parameters:
*   Valid Frequency Range = 0.001GHz-2.7GHz
*   Ambient Temperature = 25 degC
*   Inductor Frequency Model
*   Use model for Frequency Domain simulations
*======================================================================
.subckt 0805CS-470_freq port1 port2 PARAMS: Cpar=0.111pF Ind=47nH
X1 port1 port2 Model2A PARAMS:
+ R1=10
+ R2=0.31
+ C= {Cpar}
+ K1=0.0000831
+ K2=0
+ K3= {Ind}
+ K4=0
+ K5=0
+ L=0
+ Is=0
+ a=0
+ L_Z0=0
+ L_EL=0
+ L_F0=0E6
+ PkZ=30464.7736
.ends 0805CS-470_freq

*======================================================================
* SPICE Model generated by Coilcraft
* Coilcraft Part Number : 0805CS-560
* Inductance = 56nH
*======================================================================
* Model Parameters:
*   Valid Frequency Range = 0.001GHz-2.7GHz
*   Ambient Temperature = 25 degC
*   Inductor Frequency Model
*   Use model for Frequency Domain simulations
*======================================================================
.subckt 0805CS-560_freq port1 port2 PARAMS: Cpar=0.094pF Ind=56nH
X1 port1 port2 Model2A PARAMS:
+ R1=13
+ R2=0.34
+ C= {Cpar}
+ K1=0.000101
+ K2=0
+ K3= {Ind}
+ K4=0
+ K5=0
+ L=0
+ Is=0
+ a=0
+ L_Z0=0
+ L_EL=0
+ L_F0=0E6
+ PkZ=33605.8232
.ends 0805CS-560_freq

*======================================================================
* SPICE Model generated by Coilcraft
* Coilcraft Part Number : 0805CS-680
* Inductance = 67.5nH
*======================================================================
* Model Parameters:
*   Valid Frequency Range = 0.001GHz-2.5GHz
*   Ambient Temperature = 25 degC
*   Inductor Frequency Model
*   Use model for Frequency Domain simulations
*======================================================================
.subckt 0805CS-680_freq port1 port2 PARAMS: Cpar=0.088pF Ind=67.5nH
X1 port1 port2 Model2A PARAMS:
+ R1=12
+ R2=0.38
+ C= {Cpar}
+ K1=0.00012
+ K2=0
+ K3= {Ind}
+ K4=0
+ K5=0
+ L=0
+ Is=0
+ a=0
+ L_Z0=0
+ L_EL=0
+ L_F0=0E6
+ PkZ=43954.268
.ends 0805CS-680_freq

*======================================================================
* SPICE Model generated by Coilcraft
* Coilcraft Part Number : 0805CS-820
* Inductance = 81.4nH
*======================================================================
* Model Parameters:
*   Valid Frequency Range = 0.001GHz-2.3GHz
*   Ambient Temperature = 25 degC
*   Inductor Frequency Model
*   Use model for Frequency Domain simulations
*======================================================================
.subckt 0805CS-820_freq port1 port2 PARAMS: Cpar=0.088pF Ind=81.4nH
X1 port1 port2 Model2A PARAMS:
+ R1=15
+ R2=0.42
+ C= {Cpar}
+ K1=0.000134
+ K2=0
+ K3= {Ind}
+ K4=0
+ K5=0
+ L=0
+ Is=0
+ a=0
+ L_Z0=0
+ L_EL=0
+ L_F0=0E6
+ PkZ=44454.648
.ends 0805CS-820_freq

*======================================================================
* SPICE Model generated by Coilcraft
* Coilcraft Part Number : 0805CS-910
* Inductance = 90.4nH
*======================================================================
* Model Parameters:
*   Valid Frequency Range = 0.001GHz-2.3GHz
*   Ambient Temperature = 25 degC
*   Inductor Frequency Model
*   Use model for Frequency Domain simulations
*======================================================================
.subckt 0805CS-910_freq port1 port2 PARAMS: Cpar=0.083pF Ind=90.4nH
X1 port1 port2 Model2A PARAMS:
+ R1=12
+ R2=0.48
+ C= {Cpar}
+ K1=0.00014
+ K2=0
+ K3= {Ind}
+ K4=0
+ K5=0
+ L=0
+ Is=0
+ a=0
+ L_Z0=0
+ L_EL=0
+ L_F0=0E6
+ PkZ=60510.6843
.ends 0805CS-910_freq

*======================================================================
* SPICE Model generated by Coilcraft
* Coilcraft Part Number : 0805CS-101
* Inductance = 99.1nH
*======================================================================
* Model Parameters:
*   Valid Frequency Range = 0.001GHz-2.1GHz
*   Ambient Temperature = 25 degC
*   Inductor Frequency Model
*   Use model for Frequency Domain simulations
*======================================================================
.subckt 0805CS-101_freq port1 port2 PARAMS: Cpar=0.089pF Ind=99.1nH
X1 port1 port2 Model2A PARAMS:
+ R1=14
+ R2=0.46
+ C= {Cpar}
+ K1=0.000156
+ K2=0
+ K3= {Ind}
+ K4=0
+ K5=0
+ L=0
+ Is=0
+ a=0
+ L_Z0=0
+ L_EL=0
+ L_F0=0E6
+ PkZ=54530.0337
.ends 0805CS-101_freq

*======================================================================
* SPICE Model generated by Coilcraft
* Coilcraft Part Number : 0805CS-111
* Inductance = 109nH
*======================================================================
* Model Parameters:
*   Valid Frequency Range = 0.001GHz-1.8GHz
*   Ambient Temperature = 25 degC
*   Inductor Frequency Model
*   Use model for Frequency Domain simulations
*======================================================================
.subckt 0805CS-111_freq port1 port2 PARAMS: Cpar=0.109pF Ind=109nH
X1 port1 port2 Model2A PARAMS:
+ R1=15
+ R2=0.48
+ C= {Cpar}
+ K1=0.000152
+ K2=0
+ K3= {Ind}
+ K4=0
+ K5=0
+ L=0
+ Is=0
+ a=0
+ L_Z0=0
+ L_EL=0
+ L_F0=0E6
+ PkZ=48064.7075
.ends 0805CS-111_freq

*======================================================================
* SPICE Model generated by Coilcraft
* Coilcraft Part Number : 0805CS-121
* Inductance = 119nH
*======================================================================
* Model Parameters:
*   Valid Frequency Range = 0.001GHz-1.8GHz
*   Ambient Temperature = 25 degC
*   Inductor Frequency Model
*   Use model for Frequency Domain simulations
*======================================================================
.subckt 0805CS-121_freq port1 port2 PARAMS: Cpar=0.095pF Ind=119nH
X1 port1 port2 Model2A PARAMS:
+ R1=18
+ R2=0.51
+ C= {Cpar}
+ K1=0.000172
+ K2=0
+ K3= {Ind}
+ K4=0
+ K5=0
+ L=0
+ Is=0
+ a=0
+ L_Z0=0
+ L_EL=0
+ L_F0=0E6
+ PkZ=50815.2258
.ends 0805CS-121_freq

*======================================================================
* SPICE Model generated by Coilcraft
* Coilcraft Part Number : 0805CS-151
* Inductance = 149nH
*======================================================================
* Model Parameters:
*   Valid Frequency Range = 0.001GHz-1.5GHz
*   Ambient Temperature = 25 degC
*   Inductor Frequency Model
*   Use model for Frequency Domain simulations
*======================================================================
.subckt 0805CS-151_freq port1 port2 PARAMS: Cpar=0.11pF Ind=149nH
X1 port1 port2 Model2A PARAMS:
+ R1=24
+ R2=0.56
+ C= {Cpar}
+ K1=0.000223
+ K2=0
+ K3= {Ind}
+ K4=0
+ K5=0
+ L=0
+ Is=0
+ a=0
+ L_Z0=0
+ L_EL=0
+ L_F0=0E6
+ PkZ=42522.5512
.ends 0805CS-151_freq

*======================================================================
* SPICE Model generated by Coilcraft
* Coilcraft Part Number : 0805CS-181
* Inductance = 178nH
*======================================================================
* Model Parameters:
*   Valid Frequency Range = 0.001GHz-1.6GHz
*   Ambient Temperature = 25 degC
*   Inductor Frequency Model
*   Use model for Frequency Domain simulations
*======================================================================
.subckt 0805CS-181_freq port1 port2 PARAMS: Cpar=0.09pF Ind=178nH
X1 port1 port2 Model2A PARAMS:
+ R1=18
+ R2=0.64
+ C= {Cpar}
+ K1=0.000275
+ K2=0
+ K3= {Ind}
+ K4=0
+ K5=0
+ L=0
+ Is=0
+ a=0
+ L_Z0=0
+ L_EL=0
+ L_F0=0E6
+ PkZ=71275.2755
.ends 0805CS-181_freq

*======================================================================
* SPICE Model generated by Coilcraft
* Coilcraft Part Number : 0805CS-221
* Inductance = 215nH
*======================================================================
* Model Parameters:
*   Valid Frequency Range = 0.001GHz-1.5GHz
*   Ambient Temperature = 25 degC
*   Inductor Frequency Model
*   Use model for Frequency Domain simulations
*======================================================================
.subckt 0805CS-221_freq port1 port2 PARAMS: Cpar=0.086pF Ind=215nH
X1 port1 port2 Model2A PARAMS:
+ R1=26
+ R2=0.7
+ C= {Cpar}
+ K1=0.00034
+ K2=0
+ K3= {Ind}
+ K4=0
+ K5=0
+ L=0
+ Is=0
+ a=0
+ L_Z0=0
+ L_EL=0
+ L_F0=0E6
+ PkZ=66444.2806
.ends 0805CS-221_freq

*======================================================================
* SPICE Model generated by Coilcraft
* Coilcraft Part Number : 0805CS-241
* Inductance = 235nH
*======================================================================
* Model Parameters:
*   Valid Frequency Range = 0.001GHz-1.3GHz
*   Ambient Temperature = 25 degC
*   Inductor Frequency Model
*   Use model for Frequency Domain simulations
*======================================================================
.subckt 0805CS-241_freq port1 port2 PARAMS: Cpar=0.098pF Ind=235nH
X1 port1 port2 Model2A PARAMS:
+ R1=27
+ R2=1
+ C= {Cpar}
+ K1=0.00038
+ K2=0
+ K3= {Ind}
+ K4=0
+ K5=0
+ L=0
+ Is=0
+ a=0
+ L_Z0=0
+ L_EL=0
+ L_F0=0E6
+ PkZ=61019.5109
.ends 0805CS-241_freq

*======================================================================
* SPICE Model generated by Coilcraft
* Coilcraft Part Number : 0805CS-271
* Inductance = 263nH
*======================================================================
* Model Parameters:
*   Valid Frequency Range = 0.001GHz-1.2GHz
*   Ambient Temperature = 25 degC
*   Inductor Frequency Model
*   Use model for Frequency Domain simulations
*======================================================================
.subckt 0805CS-271_freq port1 port2 PARAMS: Cpar=0.098pF Ind=263nH
X1 port1 port2 Model2A PARAMS:
+ R1=31
+ R2=1
+ C= {Cpar}
+ K1=0.00039
+ K2=0
+ K3= {Ind}
+ K4=0
+ K5=0
+ L=0
+ Is=0
+ a=0
+ L_Z0=0
+ L_EL=0
+ L_F0=0E6
+ PkZ=62021.8582
.ends 0805CS-271_freq

*======================================================================
* SPICE Model generated by Coilcraft
* Coilcraft Part Number : 0805CS-331
* Inductance = 320nH
*======================================================================
* Model Parameters:
*   Valid Frequency Range = 0.001GHz-1.1GHz
*   Ambient Temperature = 25 degC
*   Inductor Frequency Model
*   Use model for Frequency Domain simulations
*======================================================================
.subckt 0805CS-331_freq port1 port2 PARAMS: Cpar=0.096pF Ind=320nH
X1 port1 port2 Model2A PARAMS:
+ R1=31
+ R2=1.4
+ C= {Cpar}
+ K1=0.000474
+ K2=0
+ K3= {Ind}
+ K4=0
+ K5=0
+ L=0
+ Is=0
+ a=0
+ L_Z0=0
+ L_EL=0
+ L_F0=0E6
+ PkZ=73624.6687
.ends 0805CS-331_freq

*======================================================================
* SPICE Model generated by Coilcraft
* Coilcraft Part Number : 0805CS-391
* Inductance = 380nH
*======================================================================
* Model Parameters:
*   Valid Frequency Range = 0.001GHz-1.1GHz
*   Ambient Temperature = 25 degC
*   Inductor Frequency Model
*   Use model for Frequency Domain simulations
*======================================================================
.subckt 0805CS-391_freq port1 port2 PARAMS: Cpar=0.095pF Ind=380nH
X1 port1 port2 Model2A PARAMS:
+ R1=33
+ R2=1.5
+ C= {Cpar}
+ K1=0.000578
+ K2=0
+ K3= {Ind}
+ K4=0
+ K5=0
+ L=0
+ Is=0
+ a=0
+ L_Z0=0
+ L_EL=0
+ L_F0=0E6
+ PkZ=80451.7723
.ends 0805CS-391_freq

*======================================================================
* SPICE Model generated by Coilcraft
* Coilcraft Part Number : 0805CS-471
* Inductance = 470nH
*======================================================================
* Model Parameters:
*   Valid Frequency Range = 0.001GHz-0.8GHz
*   Ambient Temperature = 25 degC
*   Inductor Frequency Model
*   Use model for Frequency Domain simulations
*======================================================================
.subckt 0805CS-471_freq port1 port2 PARAMS: Cpar=0.132pF Ind=470nH
X1 port1 port2 Model2A PARAMS:
+ R1=66
+ R2=1.76
+ C= {Cpar}
+ K1=0.000614
+ K2=0
+ K3= {Ind}
+ K4=0
+ K5=0
+ L=0
+ Is=0
+ a=0
+ L_Z0=0
+ L_EL=0
+ L_F0=0E6
+ PkZ=43707.2848
.ends 0805CS-471_freq

*======================================================================
* SPICE Model generated by Coilcraft
* Coilcraft Part Number : 0805CS-561
* Inductance = 560nH
*======================================================================
* Model Parameters:
*   Valid Frequency Range = 0.001GHz-0.6GHz
*   Ambient Temperature = 25 degC
*   Inductor Frequency Model
*   Use model for Frequency Domain simulations
*======================================================================
.subckt 0805CS-561_freq port1 port2 PARAMS: Cpar=0.258pF Ind=560nH
X1 port1 port2 Model2A PARAMS:
+ R1=66
+ R2=1.9
+ C= {Cpar}
+ K1=0.000554
+ K2=0
+ K3= {Ind}
+ K4=0
+ K5=0
+ L=0
+ Is=0
+ a=0
+ L_Z0=0
+ L_EL=0
+ L_F0=0E6
+ PkZ=28097.1957
.ends 0805CS-561_freq

*======================================================================
* SPICE Model generated by Coilcraft
* Coilcraft Part Number : 0805CS-681
* Inductance = 680nH
*======================================================================
* Model Parameters:
*   Valid Frequency Range = 0.001GHz-0.4GHz
*   Ambient Temperature = 25 degC
*   Inductor Frequency Model
*   Use model for Frequency Domain simulations
*======================================================================
.subckt 0805CS-681_freq port1 port2 PARAMS: Cpar=0.542pF Ind=680nH
X1 port1 port2 Model2A PARAMS:
+ R1=88
+ R2=2.2
+ C= {Cpar}
+ K1=0.000714
+ K2=0
+ K3= {Ind}
+ K4=0
+ K5=0
+ L=0
+ Is=0
+ a=0
+ L_Z0=0
+ L_EL=0
+ L_F0=0E6
+ PkZ=12643.1926
.ends 0805CS-681_freq

*======================================================================
* SPICE Model generated by Coilcraft
* Coilcraft Part Number : 0805CS-821
* Inductance = 820nH
*======================================================================
* Model Parameters:
*   Valid Frequency Range = 0.001GHz-0.5GHz
*   Ambient Temperature = 25 degC
*   Inductor Frequency Model
*   Use model for Frequency Domain simulations
*======================================================================
.subckt 0805CS-821_freq port1 port2 PARAMS: Cpar=0.255pF Ind=820nH
X1 port1 port2 Model2A PARAMS:
+ R1=125
+ R2=2.35
+ C= {Cpar}
+ K1=0.00098
+ K2=0
+ K3= {Ind}
+ K4=0
+ K5=0
+ L=0
+ Is=0
+ a=0
+ L_Z0=0
+ L_EL=0
+ L_F0=0E6
+ PkZ=22500.874
.ends 0805CS-821_freq

*======================================================================
* SPICE Model generated by Coilcraft
* Coilcraft RF Inductor Model
*======================================================================
* Model Parameters:
*   Valid Frequency Range Varies by Inductor
*   Ambient Temperature = 25 degC
*   DC Bias Current = 0 A
*   Frequency Dependent Inductor Model
*======================================================================
.subckt Model2A Lin Lout PARAMS:
+ R1=1
+ R2=1
+ C=1
+ K1=1
+ K3=1
R2 N001 Lin {R2}
R1 Lout N002 {R1}
C1 N002 N001 {C}
G_Rvar1 N001 N003 LAPLACE { V(N001, N003) } {1/K1/(-S*S/4/PI^2)^0.25}
L1 N003 Lout = {K3}
.ends Model2A








.subckt Coilcraft_Inductor Lin Lout
R1 Lout Lin 100Meg
.ends Coilcraft_Inductor
