*======================================================================
* SPICE Model generated by Coilcraft
* Coilcraft Part Number : 1008CS-100
* Inductance = 9.8nH
*======================================================================
* Model Parameters:
*   Valid Frequency Range = 0.001GHz-6.7GHz
*   Ambient Temperature = 25 degC
*   Inductor Frequency Model
*   Use model for Frequency Domain simulations
*======================================================================
.subckt 1008CS-100_freq port1 port2 PARAMS: Cpar=0.065pF Ind=9.8nH
X1 port1 port2 Model2A PARAMS:
+ R1=8
+ R2=0.1
+ C= {Cpar}
+ K1=0.0000196
+ K2=0
+ K3= {Ind}
+ K4=0
+ K5=0
+ L=0
+ Is=0
+ a=0
+ L_Z0=0
+ L_EL=0
+ L_F0=0E6
+ PkZ=15780.2963
.ends 1008CS-100_freq

*======================================================================
* SPICE Model generated by Coilcraft
* Coilcraft Part Number : 1008CS-120
* Inductance = 12nH
*======================================================================
* Model Parameters:
*   Valid Frequency Range = 0.001GHz-4.9GHz
*   Ambient Temperature = 25 degC
*   Inductor Frequency Model
*   Use model for Frequency Domain simulations
*======================================================================
.subckt 1008CS-120_freq port1 port2 PARAMS: Cpar=0.1pF Ind=12nH
X1 port1 port2 Model2A PARAMS:
+ R1=7
+ R2=0.1
+ C= {Cpar}
+ K1=0.000024
+ K2=0
+ K3= {Ind}
+ K4=0
+ K5=0
+ L=0
+ Is=0
+ a=0
+ L_Z0=0
+ L_EL=0
+ L_F0=0E6
+ PkZ=13913.2827
.ends 1008CS-120_freq

*======================================================================
* SPICE Model generated by Coilcraft
* Coilcraft Part Number : 1008CS-150
* Inductance = 15nH
*======================================================================
* Model Parameters:
*   Valid Frequency Range = 0.001GHz-3.7GHz
*   Ambient Temperature = 25 degC
*   Inductor Frequency Model
*   Use model for Frequency Domain simulations
*======================================================================
.subckt 1008CS-150_freq port1 port2 PARAMS: Cpar=0.153pF Ind=15nH
X1 port1 port2 Model2A PARAMS:
+ R1=7
+ R2=0.1
+ C= {Cpar}
+ K1=0.0000312
+ K2=0
+ K3= {Ind}
+ K4=0
+ K5=0
+ L=0
+ Is=0
+ a=0
+ L_Z0=0
+ L_EL=0
+ L_F0=0E6
+ PkZ=11146.0047
.ends 1008CS-150_freq

*======================================================================
* SPICE Model generated by Coilcraft
* Coilcraft Part Number : 1008CS-180
* Inductance = 18nH
*======================================================================
* Model Parameters:
*   Valid Frequency Range = 0.001GHz-4.6GHz
*   Ambient Temperature = 25 degC
*   Inductor Frequency Model
*   Use model for Frequency Domain simulations
*======================================================================
.subckt 1008CS-180_freq port1 port2 PARAMS: Cpar=0.083pF Ind=18nH
X1 port1 port2 Model2A PARAMS:
+ R1=7
+ R2=0.1
+ C= {Cpar}
+ K1=0.0000316
+ K2=0
+ K3= {Ind}
+ K4=0
+ K5=0
+ L=0
+ Is=0
+ a=0
+ L_Z0=0
+ L_EL=0
+ L_F0=0E6
+ PkZ=24025.4186
.ends 1008CS-180_freq

*======================================================================
* SPICE Model generated by Coilcraft
* Coilcraft Part Number : 1008CS-220
* Inductance = 22nH
*======================================================================
* Model Parameters:
*   Valid Frequency Range = 0.001GHz-3.4GHz
*   Ambient Temperature = 25 degC
*   Inductor Frequency Model
*   Use model for Frequency Domain simulations
*======================================================================
.subckt 1008CS-220_freq port1 port2 PARAMS: Cpar=0.124pF Ind=22nH
X1 port1 port2 Model2A PARAMS:
+ R1=8
+ R2=0.1
+ C= {Cpar}
+ K1=0.0000369
+ K2=0
+ K3= {Ind}
+ K4=0
+ K5=0
+ L=0
+ Is=0
+ a=0
+ L_Z0=0
+ L_EL=0
+ L_F0=0E6
+ PkZ=17680.1562
.ends 1008CS-220_freq

*======================================================================
* SPICE Model generated by Coilcraft
* Coilcraft Part Number : 1008CS-270
* Inductance = 27nH
*======================================================================
* Model Parameters:
*   Valid Frequency Range = 0.001GHz-2.5GHz
*   Ambient Temperature = 25 degC
*   Inductor Frequency Model
*   Use model for Frequency Domain simulations
*======================================================================
.subckt 1008CS-270_freq port1 port2 PARAMS: Cpar=0.185pF Ind=27nH
X1 port1 port2 Model2A PARAMS:
+ R1=8
+ R2=0.1
+ C= {Cpar}
+ K1=0.0000441
+ K2=0
+ K3= {Ind}
+ K4=0
+ K5=0
+ L=0
+ Is=0
+ a=0
+ L_Z0=0
+ L_EL=0
+ L_F0=0E6
+ PkZ=14463.9785
.ends 1008CS-270_freq

*======================================================================
* SPICE Model generated by Coilcraft
* Coilcraft Part Number : 1008CS-330
* Inductance = 33nH
*======================================================================
* Model Parameters:
*   Valid Frequency Range = 0.001GHz-2.9GHz
*   Ambient Temperature = 25 degC
*   Inductor Frequency Model
*   Use model for Frequency Domain simulations
*======================================================================
.subckt 1008CS-330_freq port1 port2 PARAMS: Cpar=0.117pF Ind=33nH
X1 port1 port2 Model2A PARAMS:
+ R1=9
+ R2=0.1
+ C= {Cpar}
+ K1=0.0000518
+ K2=0
+ K3= {Ind}
+ K4=0
+ K5=0
+ L=0
+ Is=0
+ a=0
+ L_Z0=0
+ L_EL=0
+ L_F0=0E6
+ PkZ=24273.4734
.ends 1008CS-330_freq

*======================================================================
* SPICE Model generated by Coilcraft
* Coilcraft Part Number : 1008CS-390
* Inductance = 39nH
*======================================================================
* Model Parameters:
*   Valid Frequency Range = 0.001GHz-2.3GHz
*   Ambient Temperature = 25 degC
*   Inductor Frequency Model
*   Use model for Frequency Domain simulations
*======================================================================
.subckt 1008CS-390_freq port1 port2 PARAMS: Cpar=0.149pF Ind=39nH
X1 port1 port2 Model2A PARAMS:
+ R1=9
+ R2=0.2
+ C= {Cpar}
+ K1=0.000055
+ K2=0
+ K3= {Ind}
+ K4=0
+ K5=0
+ L=0
+ Is=0
+ a=0
+ L_Z0=0
+ L_EL=0
+ L_F0=0E6
+ PkZ=22738.5225
.ends 1008CS-390_freq

*======================================================================
* SPICE Model generated by Coilcraft
* Coilcraft Part Number : 1008CS-470
* Inductance = 47nH
*======================================================================
* Model Parameters:
*   Valid Frequency Range = 0.001GHz-2.4GHz
*   Ambient Temperature = 25 degC
*   Inductor Frequency Model
*   Use model for Frequency Domain simulations
*======================================================================
.subckt 1008CS-470_freq port1 port2 PARAMS: Cpar=0.118pF Ind=47nH
X1 port1 port2 Model2A PARAMS:
+ R1=9
+ R2=0.2
+ C= {Cpar}
+ K1=0.000064
+ K2=0
+ K3= {Ind}
+ K4=0
+ K5=0
+ L=0
+ Is=0
+ a=0
+ L_Z0=0
+ L_EL=0
+ L_F0=0E6
+ PkZ=33310.7836
.ends 1008CS-470_freq

*======================================================================
* SPICE Model generated by Coilcraft
* Coilcraft Part Number : 1008CS-560
* Inductance = 56nH
*======================================================================
* Model Parameters:
*   Valid Frequency Range = 0.001GHz-1.9GHz
*   Ambient Temperature = 25 degC
*   Inductor Frequency Model
*   Use model for Frequency Domain simulations
*======================================================================
.subckt 1008CS-560_freq port1 port2 PARAMS: Cpar=0.16pF Ind=56nH
X1 port1 port2 Model2A PARAMS:
+ R1=7
+ R2=0.2
+ C= {Cpar}
+ K1=0.000074
+ K2=0
+ K3= {Ind}
+ K4=0
+ K5=0
+ L=0
+ Is=0
+ a=0
+ L_Z0=0
+ L_EL=0
+ L_F0=0E6
+ PkZ=34883.3073
.ends 1008CS-560_freq

*======================================================================
* SPICE Model generated by Coilcraft
* Coilcraft Part Number : 1008CS-680
* Inductance = 68nH
*======================================================================
* Model Parameters:
*   Valid Frequency Range = 0.001GHz-1.9GHz
*   Ambient Temperature = 25 degC
*   Inductor Frequency Model
*   Use model for Frequency Domain simulations
*======================================================================
.subckt 1008CS-680_freq port1 port2 PARAMS: Cpar=0.137pF Ind=68nH
X1 port1 port2 Model2A PARAMS:
+ R1=6
+ R2=0.2
+ C= {Cpar}
+ K1=0.000092
+ K2=0
+ K3= {Ind}
+ K4=0
+ K5=0
+ L=0
+ Is=0
+ a=0
+ L_Z0=0
+ L_EL=0
+ L_F0=0E6
+ PkZ=50984.4324
.ends 1008CS-680_freq

*======================================================================
* SPICE Model generated by Coilcraft
* Coilcraft Part Number : 1008CS-820
* Inductance = 81nH
*======================================================================
* Model Parameters:
*   Valid Frequency Range = 0.001GHz-1.5GHz
*   Ambient Temperature = 25 degC
*   Inductor Frequency Model
*   Use model for Frequency Domain simulations
*======================================================================
.subckt 1008CS-820_freq port1 port2 PARAMS: Cpar=0.179pF Ind=81nH
X1 port1 port2 Model2A PARAMS:
+ R1=12
+ R2=0.2
+ C= {Cpar}
+ K1=0.000115
+ K2=0
+ K3= {Ind}
+ K4=0
+ K5=0
+ L=0
+ Is=0
+ a=0
+ L_Z0=0
+ L_EL=0
+ L_F0=0E6
+ PkZ=27971.0617
.ends 1008CS-820_freq

*======================================================================
* SPICE Model generated by Coilcraft
* Coilcraft Part Number : 1008CS-101
* Inductance = 100nH
*======================================================================
* Model Parameters:
*   Valid Frequency Range = 0.001GHz-1.6GHz
*   Ambient Temperature = 25 degC
*   Inductor Frequency Model
*   Use model for Frequency Domain simulations
*======================================================================
.subckt 1008CS-101_freq port1 port2 PARAMS: Cpar=0.135pF Ind=100nH
X1 port1 port2 Model2A PARAMS:
+ R1=13
+ R2=0.6
+ C= {Cpar}
+ K1=0.000125
+ K2=0
+ K3= {Ind}
+ K4=0
+ K5=0
+ L=0
+ Is=0
+ a=0
+ L_Z0=0
+ L_EL=0
+ L_F0=0E6
+ PkZ=42030.6706
.ends 1008CS-101_freq

*======================================================================
* SPICE Model generated by Coilcraft
* Coilcraft Part Number : 1008CS-121
* Inductance = 120nH
*======================================================================
* Model Parameters:
*   Valid Frequency Range = 0.001GHz-1.4GHz
*   Ambient Temperature = 25 degC
*   Inductor Frequency Model
*   Use model for Frequency Domain simulations
*======================================================================
.subckt 1008CS-121_freq port1 port2 PARAMS: Cpar=0.136pF Ind=120nH
X1 port1 port2 Model2A PARAMS:
+ R1=13
+ R2=0.6
+ C= {Cpar}
+ K1=0.000151
+ K2=0
+ K3= {Ind}
+ K4=0
+ K5=0
+ L=0
+ Is=0
+ a=0
+ L_Z0=0
+ L_EL=0
+ L_F0=0E6
+ PkZ=48143.729
.ends 1008CS-121_freq

*======================================================================
* SPICE Model generated by Coilcraft
* Coilcraft Part Number : 1008CS-151
* Inductance = 150nH
*======================================================================
* Model Parameters:
*   Valid Frequency Range = 0.001GHz-1.3GHz
*   Ambient Temperature = 25 degC
*   Inductor Frequency Model
*   Use model for Frequency Domain simulations
*======================================================================
.subckt 1008CS-151_freq port1 port2 PARAMS: Cpar=0.136pF Ind=150nH
X1 port1 port2 Model2A PARAMS:
+ R1=14
+ R2=0.7
+ C= {Cpar}
+ K1=0.00011
+ K2=0
+ K3= {Ind}
+ K4=0
+ K5=0
+ L=0
+ Is=0
+ a=0
+ L_Z0=0
+ L_EL=0
+ L_F0=0E6
+ PkZ=62418.6371
.ends 1008CS-151_freq

*======================================================================
* SPICE Model generated by Coilcraft
* Coilcraft Part Number : 1008CS-181
* Inductance = 180nH
*======================================================================
* Model Parameters:
*   Valid Frequency Range = 0.001GHz-1.2GHz
*   Ambient Temperature = 25 degC
*   Inductor Frequency Model
*   Use model for Frequency Domain simulations
*======================================================================
.subckt 1008CS-181_freq port1 port2 PARAMS: Cpar=0.13pF Ind=180nH
X1 port1 port2 Model2A PARAMS:
+ R1=18
+ R2=0.8
+ C= {Cpar}
+ K1=0.00014
+ K2=0
+ K3= {Ind}
+ K4=0
+ K5=0
+ L=0
+ Is=0
+ a=0
+ L_Z0=0
+ L_EL=0
+ L_F0=0E6
+ PkZ=61503.7377
.ends 1008CS-181_freq

*======================================================================
* SPICE Model generated by Coilcraft
* Coilcraft Part Number : 1008CS-221
* Inductance = 224nH
*======================================================================
* Model Parameters:
*   Valid Frequency Range = 0.001GHz-1GHz
*   Ambient Temperature = 25 degC
*   Inductor Frequency Model
*   Use model for Frequency Domain simulations
*======================================================================
.subckt 1008CS-221_freq port1 port2 PARAMS: Cpar=0.147pF Ind=224nH
X1 port1 port2 Model2A PARAMS:
+ R1=18
+ R2=0.8
+ C= {Cpar}
+ K1=0.00019
+ K2=0
+ K3= {Ind}
+ K4=0
+ K5=0
+ L=0
+ Is=0
+ a=0
+ L_Z0=0
+ L_EL=0
+ L_F0=0E6
+ PkZ=64502.8985
.ends 1008CS-221_freq

*======================================================================
* SPICE Model generated by Coilcraft
* Coilcraft Part Number : 1008CS-271
* Inductance = 265nH
*======================================================================
* Model Parameters:
*   Valid Frequency Range = 0.001GHz-0.9GHz
*   Ambient Temperature = 25 degC
*   Inductor Frequency Model
*   Use model for Frequency Domain simulations
*======================================================================
.subckt 1008CS-271_freq port1 port2 PARAMS: Cpar=0.144pF Ind=265nH
X1 port1 port2 Model2A PARAMS:
+ R1=19
+ R2=0.9
+ C= {Cpar}
+ K1=0.000232
+ K2=0
+ K3= {Ind}
+ K4=0
+ K5=0
+ L=0
+ Is=0
+ a=0
+ L_Z0=0
+ L_EL=0
+ L_F0=0E6
+ PkZ=71832.6319
.ends 1008CS-271_freq

*======================================================================
* SPICE Model generated by Coilcraft
* Coilcraft Part Number : 1008CS-331
* Inductance = 330nH
*======================================================================
* Model Parameters:
*   Valid Frequency Range = 0.001GHz-0.9GHz
*   Ambient Temperature = 25 degC
*   Inductor Frequency Model
*   Use model for Frequency Domain simulations
*======================================================================
.subckt 1008CS-331_freq port1 port2 PARAMS: Cpar=0.132pF Ind=330nH
X1 port1 port2 Model2A PARAMS:
+ R1=20
+ R2=1.1
+ C= {Cpar}
+ K1=0.000284
+ K2=0
+ K3= {Ind}
+ K4=0
+ K5=0
+ L=0
+ Is=0
+ a=0
+ L_Z0=0
+ L_EL=0
+ L_F0=0E6
+ PkZ=89800.0557
.ends 1008CS-331_freq

*======================================================================
* SPICE Model generated by Coilcraft
* Coilcraft Part Number : 1008CS-391
* Inductance = 380nH
*======================================================================
* Model Parameters:
*   Valid Frequency Range = 0.001GHz-0.8GHz
*   Ambient Temperature = 25 degC
*   Inductor Frequency Model
*   Use model for Frequency Domain simulations
*======================================================================
.subckt 1008CS-391_freq port1 port2 PARAMS: Cpar=0.138pF Ind=380nH
X1 port1 port2 Model2A PARAMS:
+ R1=27
+ R2=1.1
+ C= {Cpar}
+ K1=0.000349
+ K2=0
+ K3= {Ind}
+ K4=0
+ K5=0
+ L=0
+ Is=0
+ a=0
+ L_Z0=0
+ L_EL=0
+ L_F0=0E6
+ PkZ=76077.8464
.ends 1008CS-391_freq

*======================================================================
* SPICE Model generated by Coilcraft
* Coilcraft Part Number : 1008CS-471
* Inductance = 465nH
*======================================================================
* Model Parameters:
*   Valid Frequency Range = 0.001GHz-0.7GHz
*   Ambient Temperature = 25 degC
*   Inductor Frequency Model
*   Use model for Frequency Domain simulations
*======================================================================
.subckt 1008CS-471_freq port1 port2 PARAMS: Cpar=0.156pF Ind=465nH
X1 port1 port2 Model2A PARAMS:
+ R1=31
+ R2=1.2
+ C= {Cpar}
+ K1=0.000427
+ K2=0
+ K3= {Ind}
+ K4=0
+ K5=0
+ L=0
+ Is=0
+ a=0
+ L_Z0=0
+ L_EL=0
+ L_F0=0E6
+ PkZ=72048.3217
.ends 1008CS-471_freq

*======================================================================
* SPICE Model generated by Coilcraft
* Coilcraft Part Number : 1008CS-561
* Inductance = 550nH
*======================================================================
* Model Parameters:
*   Valid Frequency Range = 0.001GHz-0.6GHz
*   Ambient Temperature = 25 degC
*   Inductor Frequency Model
*   Use model for Frequency Domain simulations
*======================================================================
.subckt 1008CS-561_freq port1 port2 PARAMS: Cpar=0.172pF Ind=550nH
X1 port1 port2 Model2A PARAMS:
+ R1=36
+ R2=1.3
+ C= {Cpar}
+ K1=0.000518
+ K2=0
+ K3= {Ind}
+ K4=0
+ K5=0
+ L=0
+ Is=0
+ a=0
+ L_Z0=0
+ L_EL=0
+ L_F0=0E6
+ PkZ=66936.6388
.ends 1008CS-561_freq

*======================================================================
* SPICE Model generated by Coilcraft
* Coilcraft Part Number : 1008CS-621
* Inductance = 615nH
*======================================================================
* Model Parameters:
*   Valid Frequency Range = 0.001GHz-0.6GHz
*   Ambient Temperature = 25 degC
*   Inductor Frequency Model
*   Use model for Frequency Domain simulations
*======================================================================
.subckt 1008CS-621_freq port1 port2 PARAMS: Cpar=0.143pF Ind=615nH
X1 port1 port2 Model2A PARAMS:
+ R1=37
+ R2=1.4
+ C= {Cpar}
+ K1=0.000574
+ K2=0
+ K3= {Ind}
+ K4=0
+ K5=0
+ L=0
+ Is=0
+ a=0
+ L_Z0=0
+ L_EL=0
+ L_F0=0E6
+ PkZ=85522.0316
.ends 1008CS-621_freq

*======================================================================
* SPICE Model generated by Coilcraft
* Coilcraft Part Number : 1008CS-681
* Inductance = 665nH
*======================================================================
* Model Parameters:
*   Valid Frequency Range = 0.001GHz-0.6GHz
*   Ambient Temperature = 25 degC
*   Inductor Frequency Model
*   Use model for Frequency Domain simulations
*======================================================================
.subckt 1008CS-681_freq port1 port2 PARAMS: Cpar=0.139pF Ind=665nH
X1 port1 port2 Model2A PARAMS:
+ R1=37
+ R2=1.5
+ C= {Cpar}
+ K1=0.00061
+ K2=0
+ K3= {Ind}
+ K4=0
+ K5=0
+ L=0
+ Is=0
+ a=0
+ L_Z0=0
+ L_EL=0
+ L_F0=0E6
+ PkZ=93903.9694
.ends 1008CS-681_freq

*======================================================================
* SPICE Model generated by Coilcraft
* Coilcraft Part Number : 1008CS-751
* Inductance = 740nH
*======================================================================
* Model Parameters:
*   Valid Frequency Range = 0.001GHz-0.6GHz
*   Ambient Temperature = 25 degC
*   Inductor Frequency Model
*   Use model for Frequency Domain simulations
*======================================================================
.subckt 1008CS-751_freq port1 port2 PARAMS: Cpar=0.138pF Ind=740nH
X1 port1 port2 Model2A PARAMS:
+ R1=44
+ R2=1.5
+ C= {Cpar}
+ K1=0.00069
+ K2=0
+ K3= {Ind}
+ K4=0
+ K5=0
+ L=0
+ Is=0
+ a=0
+ L_Z0=0
+ L_EL=0
+ L_F0=0E6
+ PkZ=90296.6272
.ends 1008CS-751_freq

*======================================================================
* SPICE Model generated by Coilcraft
* Coilcraft Part Number : 1008CS-821
* Inductance = 810nH
*======================================================================
* Model Parameters:
*   Valid Frequency Range = 0.001GHz-0.6GHz
*   Ambient Temperature = 25 degC
*   Inductor Frequency Model
*   Use model for Frequency Domain simulations
*======================================================================
.subckt 1008CS-821_freq port1 port2 PARAMS: Cpar=0.135pF Ind=810nH
X1 port1 port2 Model2A PARAMS:
+ R1=41
+ R2=1.6
+ C= {Cpar}
+ K1=0.00081
+ K2=0
+ K3= {Ind}
+ K4=0
+ K5=0
+ L=0
+ Is=0
+ a=0
+ L_Z0=0
+ L_EL=0
+ L_F0=0E6
+ PkZ=102111.271
.ends 1008CS-821_freq

*======================================================================
* SPICE Model generated by Coilcraft
* Coilcraft Part Number : 1008CS-911
* Inductance = 895nH
*======================================================================
* Model Parameters:
*   Valid Frequency Range = 0.001GHz-0.5GHz
*   Ambient Temperature = 25 degC
*   Inductor Frequency Model
*   Use model for Frequency Domain simulations
*======================================================================
.subckt 1008CS-911_freq port1 port2 PARAMS: Cpar=0.155pF Ind=895nH
X1 port1 port2 Model2A PARAMS:
+ R1=53
+ R2=1.7
+ C= {Cpar}
+ K1=0.00078
+ K2=0
+ K3= {Ind}
+ K4=0
+ K5=0
+ L=0
+ Is=0
+ a=0
+ L_Z0=0
+ L_EL=0
+ L_F0=0E6
+ PkZ=83558.0409
.ends 1008CS-911_freq

*======================================================================
* SPICE Model generated by Coilcraft
* Coilcraft Part Number : 1008CS-102
* Inductance = 975nH
*======================================================================
* Model Parameters:
*   Valid Frequency Range = 0.001GHz-0.4GHz
*   Ambient Temperature = 25 degC
*   Inductor Frequency Model
*   Use model for Frequency Domain simulations
*======================================================================
.subckt 1008CS-102_freq port1 port2 PARAMS: Cpar=0.209pF Ind=975nH
X1 port1 port2 Model2A PARAMS:
+ R1=90
+ R2=1.8
+ C= {Cpar}
+ K1=0.00082
+ K2=0
+ K3= {Ind}
+ K4=0
+ K5=0
+ L=0
+ Is=0
+ a=0
+ L_Z0=0
+ L_EL=0
+ L_F0=0E6
+ PkZ=44303.2336
.ends 1008CS-102_freq

*======================================================================
* SPICE Model generated by Coilcraft
* Coilcraft Part Number : 1008CS-122
* Inductance = 1215nH
*======================================================================
* Model Parameters:
*   Valid Frequency Range = 0.001GHz-0.4GHz
*   Ambient Temperature = 25 degC
*   Inductor Frequency Model
*   Use model for Frequency Domain simulations
*======================================================================
.subckt 1008CS-122_freq port1 port2 PARAMS: Cpar=0.201pF Ind=1215nH
X1 port1 port2 Model2A PARAMS:
+ R1=73
+ R2=2
+ C= {Cpar}
+ K1=0.00105
+ K2=0
+ K3= {Ind}
+ K4=0
+ K5=0
+ L=0
+ Is=0
+ a=0
+ L_Z0=0
+ L_EL=0
+ L_F0=0E6
+ PkZ=65849.1456
.ends 1008CS-122_freq

*======================================================================
* SPICE Model generated by Coilcraft
* Coilcraft Part Number : 1008CS-152
* Inductance = 1515nH
*======================================================================
* Model Parameters:
*   Valid Frequency Range = 0.001GHz-0.3GHz
*   Ambient Temperature = 25 degC
*   Inductor Frequency Model
*   Use model for Frequency Domain simulations
*======================================================================
.subckt 1008CS-152_freq port1 port2 PARAMS: Cpar=0.249pF Ind=1515nH
X1 port1 port2 Model2A PARAMS:
+ R1=83
+ R2=2.3
+ C= {Cpar}
+ K1=0.00171
+ K2=0
+ K3= {Ind}
+ K4=0
+ K5=0
+ L=0
+ Is=0
+ a=0
+ L_Z0=0
+ L_EL=0
+ L_F0=0E6
+ PkZ=55085.4873
.ends 1008CS-152_freq

*======================================================================
* SPICE Model generated by Coilcraft
* Coilcraft Part Number : 1008CS-182
* Inductance = 1825nH
*======================================================================
* Model Parameters:
*   Valid Frequency Range = 0.001GHz-0.3GHz
*   Ambient Temperature = 25 degC
*   Inductor Frequency Model
*   Use model for Frequency Domain simulations
*======================================================================
.subckt 1008CS-182_freq port1 port2 PARAMS: Cpar=0.278pF Ind=1825nH
X1 port1 port2 Model2A PARAMS:
+ R1=85
+ R2=2.6
+ C= {Cpar}
+ K1=0.00204
+ K2=0
+ K3= {Ind}
+ K4=0
+ K5=0
+ L=0
+ Is=0
+ a=0
+ L_Z0=0
+ L_EL=0
+ L_F0=0E6
+ PkZ=56878.5308
.ends 1008CS-182_freq

*======================================================================
* SPICE Model generated by Coilcraft
* Coilcraft Part Number : 1008CS-222
* Inductance = 2200nH
*======================================================================
* Model Parameters:
*   Valid Frequency Range = 0.001GHz-0.3GHz
*   Ambient Temperature = 25 degC
*   Inductor Frequency Model
*   Use model for Frequency Domain simulations
*======================================================================
.subckt 1008CS-222_freq port1 port2 PARAMS: Cpar=0.258pF Ind=2200nH
X1 port1 port2 Model2A PARAMS:
+ R1=84
+ R2=2.8
+ C= {Cpar}
+ K1=0.00246
+ K2=0
+ K3= {Ind}
+ K4=0
+ K5=0
+ L=0
+ Is=0
+ a=0
+ L_Z0=0
+ L_EL=0
+ L_F0=0E6
+ PkZ=71242.5043
.ends 1008CS-222_freq

*======================================================================
* SPICE Model generated by Coilcraft
* Coilcraft Part Number : 1008CS-272
* Inductance = 2700nH
*======================================================================
* Model Parameters:
*   Valid Frequency Range = 0.001GHz-0.2GHz
*   Ambient Temperature = 25 degC
*   Inductor Frequency Model
*   Use model for Frequency Domain simulations
*======================================================================
.subckt 1008CS-272_freq port1 port2 PARAMS: Cpar=0.398pF Ind=2700nH
X1 port1 port2 Model2A PARAMS:
+ R1=112
+ R2=3.2
+ C= {Cpar}
+ K1=0.00255
+ K2=0
+ K3= {Ind}
+ K4=0
+ K5=0
+ L=0
+ Is=0
+ a=0
+ L_Z0=0
+ L_EL=0
+ L_F0=0E6
+ PkZ=47293.2752
.ends 1008CS-272_freq

*======================================================================
* SPICE Model generated by Coilcraft
* Coilcraft Part Number : 1008CS-332
* Inductance = 3300nH
*======================================================================
* Model Parameters:
*   Valid Frequency Range = 0.001GHz-0.2GHz
*   Ambient Temperature = 25 degC
*   Inductor Frequency Model
*   Use model for Frequency Domain simulations
*======================================================================
.subckt 1008CS-332_freq port1 port2 PARAMS: Cpar=0.285pF Ind=3300nH
X1 port1 port2 Model2A PARAMS:
+ R1=134
+ R2=3.4
+ C= {Cpar}
+ K1=0.00327
+ K2=0
+ K3= {Ind}
+ K4=0
+ K5=0
+ L=0
+ Is=0
+ a=0
+ L_Z0=0
+ L_EL=0
+ L_F0=0E6
+ PkZ=65889.7475
.ends 1008CS-332_freq

*======================================================================
* SPICE Model generated by Coilcraft
* Coilcraft Part Number : 1008CS-392
* Inductance = 3900nH
*======================================================================
* Model Parameters:
*   Valid Frequency Range = 0.001GHz-0.2GHz
*   Ambient Temperature = 25 degC
*   Inductor Frequency Model
*   Use model for Frequency Domain simulations
*======================================================================
.subckt 1008CS-392_freq port1 port2 PARAMS: Cpar=0.401pF Ind=3900nH
X1 port1 port2 Model2A PARAMS:
+ R1=121
+ R2=3.6
+ C= {Cpar}
+ K1=0.00423
+ K2=0
+ K3= {Ind}
+ K4=0
+ K5=0
+ L=0
+ Is=0
+ a=0
+ L_Z0=0
+ L_EL=0
+ L_F0=0E6
+ PkZ=57697.7467
.ends 1008CS-392_freq

*======================================================================
* SPICE Model generated by Coilcraft
* Coilcraft Part Number : 1008CS-472
* Inductance = 4600nH
*======================================================================
* Model Parameters:
*   Valid Frequency Range = 0.001GHz-0.2GHz
*   Ambient Temperature = 25 degC
*   Inductor Frequency Model
*   Use model for Frequency Domain simulations
*======================================================================
.subckt 1008CS-472_freq port1 port2 PARAMS: Cpar=0.381pF Ind=4600nH
X1 port1 port2 Model2A PARAMS:
+ R1=163
+ R2=4
+ C= {Cpar}
+ K1=0.005
+ K2=0
+ K3= {Ind}
+ K4=0
+ K5=0
+ L=0
+ Is=0
+ a=0
+ L_Z0=0
+ L_EL=0
+ L_F0=0E6
+ PkZ=55499.9543
.ends 1008CS-472_freq

*======================================================================
* SPICE Model generated by Coilcraft
* Coilcraft Part Number : 1008CS-562
* Inductance = 5250nH
*======================================================================
* Model Parameters:
*   Valid Frequency Range = 0.001GHz-0.1GHz
*   Ambient Temperature = 25 degC
*   Inductor Frequency Model
*   Use model for Frequency Domain simulations
*======================================================================
.subckt 1008CS-562_freq port1 port2 PARAMS: Cpar=5.304pF Ind=5250nH
X1 port1 port2 Model2A PARAMS:
+ R1=64
+ R2=4
+ C= {Cpar}
+ K1=0.00304
+ K2=0
+ K3= {Ind}
+ K4=0
+ K5=0
+ L=0
+ Is=0
+ a=0
+ L_Z0=0
+ L_EL=0
+ L_F0=0E6
+ PkZ=12297.2161
.ends 1008CS-562_freq

*======================================================================
* SPICE Model generated by Coilcraft
* Coilcraft Part Number : 1008CS-682
* Inductance = 6800nH
*======================================================================
* Model Parameters:
*   Valid Frequency Range = 0.001GHz-0.1GHz
*   Ambient Temperature = 25 degC
*   Inductor Frequency Model
*   Use model for Frequency Domain simulations
*======================================================================
.subckt 1008CS-682_freq port1 port2 PARAMS: Cpar=1.357pF Ind=6800nH
X1 port1 port2 Model2A PARAMS:
+ R1=148
+ R2=4.9
+ C= {Cpar}
+ K1=0.00354
+ K2=0
+ K3= {Ind}
+ K4=0
+ K5=0
+ L=0
+ Is=0
+ a=0
+ L_Z0=0
+ L_EL=0
+ L_F0=0E6
+ PkZ=28931.3809
.ends 1008CS-682_freq

*======================================================================
* SPICE Model generated by Coilcraft
* Coilcraft Part Number : 1008CS-822
* Inductance = 8200nH
*======================================================================
* Model Parameters:
*   Valid Frequency Range = 0.001GHz-0.1GHz
*   Ambient Temperature = 25 degC
*   Inductor Frequency Model
*   Use model for Frequency Domain simulations
*======================================================================