*======================================================================
* SPICE Model generated by Coilcraft
* Coilcraft Part Number : 1008PS-102
* Inductance = 1uH
*======================================================================
* Model Parameters:
*   Valid Frequency Range = 0.1MHz-50MHz
*   Ambient Temperature = 25 degC
*   Inductor Frequency Model
*   Use model for Frequency Domain simulations
*======================================================================
.subckt 1008PS-102_freq port1 port2 PARAMS: Cpar=540pF Ind=1uH
X1 port1 port2 Model1B PARAMS:
+ R1=1210
+ R2=0.061
+ C= {Cpar}
+ K1=0.00000996
+ K2=0.655
+ K3= {Ind}
+ K4=0
+ K5=0
+ L=0
+ Is=0
+ a=0
+ L_Z0=0
+ L_EL=0
+ L_F0=0E6
+ PkZ=43.0106234
.ends 1008PS-102_freq

*======================================================================
* SPICE Model generated by Coilcraft
* Coilcraft Part Number : 1008PS-102
* Inductance = 1uH
*======================================================================
* Model Parameters:
*   Valid Frequency Range = 0.1MHz-50MHz
*   Ambient Temperature = 25 degC
*   Inductor Impedance Model
*   Use model for Time Domain simulations
*======================================================================
.subckt 1008PS-102_imp port1 port2 PARAMS: Cpar=540.00pF Ind=1uH
X1 port1 port2 Model1D PARAMS:
+ R1=1210
+ R2=0.061
+ C= {Cpar}
+ K1=0.00000996
+ K2=0.655
+ K3= {Ind}
+ K4=0
+ K5=0
+ L=0
+ Is=0
+ a=0
+ L_Z0=0
+ L_EL=0
+ L_F0=0E6
+ PkZ=43.0106234
.ends 1008PS-102_imp

*======================================================================
* SPICE Model generated by Coilcraft
* Coilcraft Part Number : 1008PS-152
* Inductance = 1.5uH
*======================================================================
* Model Parameters:
*   Valid Frequency Range = 0.1MHz-45MHz
*   Ambient Temperature = 25 degC
*   Inductor Frequency Model
*   Use model for Frequency Domain simulations
*======================================================================
.subckt 1008PS-152_freq port1 port2 PARAMS: Cpar=600pF Ind=1.5uH
X1 port1 port2 Model1B PARAMS:
+ R1=1470
+ R2=0.178
+ C= {Cpar}
+ K1=0.00000835
+ K2=4.22
+ K3= {Ind}
+ K4=0
+ K5=0
+ L=0
+ Is=0
+ a=0
+ L_Z0=0
+ L_EL=0
+ L_F0=0E6
+ PkZ=50.0261021
.ends 1008PS-152_freq

*======================================================================
* SPICE Model generated by Coilcraft
* Coilcraft Part Number : 1008PS-152
* Inductance = 1.5uH
*======================================================================
* Model Parameters:
*   Valid Frequency Range = 0.1MHz-45MHz
*   Ambient Temperature = 25 degC
*   Inductor Impedance Model
*   Use model for Time Domain simulations
*======================================================================
.subckt 1008PS-152_imp port1 port2 PARAMS: Cpar=600.00pF Ind=1.5uH
X1 port1 port2 Model1D PARAMS:
+ R1=1470
+ R2=0.178
+ C= {Cpar}
+ K1=0.00000835
+ K2=4.22
+ K3= {Ind}
+ K4=0
+ K5=0
+ L=0
+ Is=0
+ a=0
+ L_Z0=0
+ L_EL=0
+ L_F0=0E6
+ PkZ=50.0261021
.ends 1008PS-152_imp

*======================================================================
* SPICE Model generated by Coilcraft
* Coilcraft Part Number : 1008PS-182
* Inductance = 1.8uH
*======================================================================
* Model Parameters:
*   Valid Frequency Range = 0.1MHz-40MHz
*   Ambient Temperature = 25 degC
*   Inductor Frequency Model
*   Use model for Frequency Domain simulations
*======================================================================
.subckt 1008PS-182_freq port1 port2 PARAMS: Cpar=600pF Ind=1.8uH
X1 port1 port2 Model1B PARAMS:
+ R1=2300
+ R2=0.12
+ C= {Cpar}
+ K1=0.0000464
+ K2=2.11
+ K3= {Ind}
+ K4=0
+ K5=0
+ L=0
+ Is=0
+ a=0
+ L_Z0=0
+ L_EL=0
+ L_F0=0E6
+ PkZ=54.7696781
.ends 1008PS-182_freq

*======================================================================
* SPICE Model generated by Coilcraft
* Coilcraft Part Number : 1008PS-182
* Inductance = 1.8uH
*======================================================================
* Model Parameters:
*   Valid Frequency Range = 0.1MHz-40MHz
*   Ambient Temperature = 25 degC
*   Inductor Impedance Model
*   Use model for Time Domain simulations
*======================================================================
.subckt 1008PS-182_imp port1 port2 PARAMS: Cpar=600.00pF Ind=1.8uH
X1 port1 port2 Model1D PARAMS:
+ R1=2300
+ R2=0.12
+ C= {Cpar}
+ K1=0.0000464
+ K2=2.11
+ K3= {Ind}
+ K4=0
+ K5=0
+ L=0
+ Is=0
+ a=0
+ L_Z0=0
+ L_EL=0
+ L_F0=0E6
+ PkZ=54.7696781
.ends 1008PS-182_imp

*======================================================================
* SPICE Model generated by Coilcraft
* Coilcraft Part Number : 1008PS-272
* Inductance = 2.7uH
*======================================================================
* Model Parameters:
*   Valid Frequency Range = 0.1MHz-30MHz
*   Ambient Temperature = 25 degC
*   Inductor Frequency Model
*   Use model for Frequency Domain simulations
*======================================================================
.subckt 1008PS-272_freq port1 port2 PARAMS: Cpar=861pF Ind=2.7uH
X1 port1 port2 Model1B PARAMS:
+ R1=1790
+ R2=0.12
+ C= {Cpar}
+ K1=0.0000197
+ K2=3.37
+ K3= {Ind}
+ K4=0
+ K5=0
+ L=0
+ Is=0
+ a=0
+ L_Z0=0
+ L_EL=0
+ L_F0=0E6
+ PkZ=56.0116524
.ends 1008PS-272_freq

*======================================================================
* SPICE Model generated by Coilcraft
* Coilcraft Part Number : 1008PS-272
* Inductance = 2.7uH
*======================================================================
* Model Parameters:
*   Valid Frequency Range = 0.1MHz-30MHz
*   Ambient Temperature = 25 degC
*   Inductor Impedance Model
*   Use model for Time Domain simulations
*======================================================================
.subckt 1008PS-272_imp port1 port2 PARAMS: Cpar=861.00pF Ind=2.7uH
X1 port1 port2 Model1D PARAMS:
+ R1=1790
+ R2=0.12
+ C= {Cpar}
+ K1=0.0000197
+ K2=3.37
+ K3= {Ind}
+ K4=0
+ K5=0
+ L=0
+ Is=0
+ a=0
+ L_Z0=0
+ L_EL=0
+ L_F0=0E6
+ PkZ=56.0116524
.ends 1008PS-272_imp

*======================================================================
* SPICE Model generated by Coilcraft
* Coilcraft Part Number : 1008PS-392
* Inductance = 3.9uH
*======================================================================
* Model Parameters:
*   Valid Frequency Range = 0.1MHz-30MHz
*   Ambient Temperature = 25 degC
*   Inductor Frequency Model
*   Use model for Frequency Domain simulations
*======================================================================
.subckt 1008PS-392_freq port1 port2 PARAMS: Cpar=503pF Ind=3.9uH
X1 port1 port2 Model1B PARAMS:
+ R1=3380
+ R2=0.267
+ C= {Cpar}
+ K1=0.0000112
+ K2=27
+ K3= {Ind}
+ K4=0
+ K5=0
+ L=0
+ Is=0
+ a=0
+ L_Z0=0
+ L_EL=0
+ L_F0=0E6
+ PkZ=88.0869332
.ends 1008PS-392_freq

*======================================================================
* SPICE Model generated by Coilcraft
* Coilcraft Part Number : 1008PS-392
* Inductance = 3.9uH
*======================================================================
* Model Parameters:
*   Valid Frequency Range = 0.1MHz-30MHz
*   Ambient Temperature = 25 degC
*   Inductor Impedance Model
*   Use model for Time Domain simulations
*======================================================================
.subckt 1008PS-392_imp port1 port2 PARAMS: Cpar=503.00pF Ind=3.9uH
X1 port1 port2 Model1D PARAMS:
+ R1=3380
+ R2=0.267
+ C= {Cpar}
+ K1=0.0000112
+ K2=27
+ K3= {Ind}
+ K4=0
+ K5=0
+ L=0
+ Is=0
+ a=0
+ L_Z0=0
+ L_EL=0
+ L_F0=0E6
+ PkZ=88.0869332
.ends 1008PS-392_imp

*======================================================================
* SPICE Model generated by Coilcraft
* Coilcraft Part Number : 1008PS-472
* Inductance = 4.7uH
*======================================================================
* Model Parameters:
*   Valid Frequency Range = 0.1MHz-25MHz
*   Ambient Temperature = 25 degC
*   Inductor Frequency Model
*   Use model for Frequency Domain simulations
*======================================================================
.subckt 1008PS-472_freq port1 port2 PARAMS: Cpar=552pF Ind=4.7uH
X1 port1 port2 Model1B PARAMS:
+ R1=4270
+ R2=0.307
+ C= {Cpar}
+ K1=0.00000154
+ K2=51
+ K3= {Ind}
+ K4=0
+ K5=0
+ L=0
+ Is=0
+ a=0
+ L_Z0=0
+ L_EL=0
+ L_F0=0E6
+ PkZ=92.3008667
.ends 1008PS-472_freq

*======================================================================
* SPICE Model generated by Coilcraft
* Coilcraft Part Number : 1008PS-472
* Inductance = 4.7uH
*======================================================================
* Model Parameters:
*   Valid Frequency Range = 0.1MHz-25MHz
*   Ambient Temperature = 25 degC
*   Inductor Impedance Model
*   Use model for Time Domain simulations
*======================================================================
.subckt 1008PS-472_imp port1 port2 PARAMS: Cpar=552.00pF Ind=4.7uH
X1 port1 port2 Model1D PARAMS:
+ R1=4270
+ R2=0.307
+ C= {Cpar}
+ K1=0.00000154
+ K2=51
+ K3= {Ind}
+ K4=0
+ K5=0
+ L=0
+ Is=0
+ a=0
+ L_Z0=0
+ L_EL=0
+ L_F0=0E6
+ PkZ=92.3008667
.ends 1008PS-472_imp

*======================================================================
* SPICE Model generated by Coilcraft
* Coilcraft Part Number : 1008PS-562
* Inductance = 5.6uH
*======================================================================
* Model Parameters:
*   Valid Frequency Range = 0.1MHz-20MHz
*   Ambient Temperature = 25 degC
*   Inductor Frequency Model
*   Use model for Frequency Domain simulations
*======================================================================
.subckt 1008PS-562_freq port1 port2 PARAMS: Cpar=552pF Ind=5.6uH
X1 port1 port2 Model1B PARAMS:
+ R1=5220
+ R2=0.369
+ C= {Cpar}
+ K1=0.00000236
+ K2=204
+ K3= {Ind}
+ K4=0
+ K5=0
+ L=0
+ Is=0
+ a=0
+ L_Z0=0
+ L_EL=0
+ L_F0=0E6
+ PkZ=100.748046
.ends 1008PS-562_freq

*======================================================================
* SPICE Model generated by Coilcraft
* Coilcraft Part Number : 1008PS-562
* Inductance = 5.6uH
*======================================================================
* Model Parameters:
*   Valid Frequency Range = 0.1MHz-20MHz
*   Ambient Temperature = 25 degC
*   Inductor Impedance Model
*   Use model for Time Domain simulations
*======================================================================
.subckt 1008PS-562_imp port1 port2 PARAMS: Cpar=552.00pF Ind=5.6uH
X1 port1 port2 Model1D PARAMS:
+ R1=5220
+ R2=0.369
+ C= {Cpar}
+ K1=0.00000236
+ K2=204
+ K3= {Ind}
+ K4=0
+ K5=0
+ L=0
+ Is=0
+ a=0
+ L_Z0=0
+ L_EL=0
+ L_F0=0E6
+ PkZ=100.748046
.ends 1008PS-562_imp

*======================================================================
* SPICE Model generated by Coilcraft
* Coilcraft Part Number : 1008PS-682
* Inductance = 6.8uH
*======================================================================
* Model Parameters:
*   Valid Frequency Range = 0.1MHz-16MHz
*   Ambient Temperature = 25 degC
*   Inductor Frequency Model
*   Use model for Frequency Domain simulations
*======================================================================
.subckt 1008PS-682_freq port1 port2 PARAMS: Cpar=5.13pF Ind=6.8uH
X1 port1 port2 Model1B PARAMS:
+ R1=4990
+ R2=0.47
+ C= {Cpar}
+ K1=0.0000118
+ K2=6.35
+ K3= {Ind}
+ K4=0
+ K5=0
+ L=0
+ Is=0
+ a=0
+ L_Z0=0
+ L_EL=0
+ L_F0=0E6
+ PkZ=1171.5232
.ends 1008PS-682_freq

*======================================================================
* SPICE Model generated by Coilcraft
* Coilcraft Part Number : 1008PS-682
* Inductance = 6.8uH
*======================================================================
* Model Parameters:
*   Valid Frequency Range = 0.1MHz-16MHz
*   Ambient Temperature = 25 degC
*   Inductor Impedance Model
*   Use model for Time Domain simulations
*======================================================================
.subckt 1008PS-682_imp port1 port2 PARAMS: Cpar=5.13pF Ind=6.8uH
X1 port1 port2 Model1D PARAMS:
+ R1=4990
+ R2=0.47
+ C= {Cpar}
+ K1=0.0000118
+ K2=6.35
+ K3= {Ind}
+ K4=0
+ K5=0
+ L=0
+ Is=0
+ a=0
+ L_Z0=0
+ L_EL=0
+ L_F0=0E6
+ PkZ=1171.5232
.ends 1008PS-682_imp

*======================================================================
* SPICE Model generated by Coilcraft
* Coilcraft Part Number : 1008PS-103
* Inductance = 10uH
*======================================================================
* Model Parameters:
*   Valid Frequency Range = 0.1MHz-12MHz
*   Ambient Temperature = 25 degC
*   Inductor Frequency Model
*   Use model for Frequency Domain simulations
*======================================================================
.subckt 1008PS-103_freq port1 port2 PARAMS: Cpar=2.73pF Ind=10uH
X1 port1 port2 Model1B PARAMS:
+ R1=8980
+ R2=0.88
+ C= {Cpar}
+ K1=0.0000118
+ K2=12.7
+ K3= {Ind}
+ K4=0
+ K5=0
+ L=0
+ Is=0
+ a=0
+ L_Z0=0
+ L_EL=0
+ L_F0=0E6
+ PkZ=1945.03553
.ends 1008PS-103_freq

*======================================================================
* SPICE Model generated by Coilcraft
* Coilcraft Part Number : 1008PS-103
* Inductance = 10uH
*======================================================================
* Model Parameters:
*   Valid Frequency Range = 0.1MHz-12MHz
*   Ambient Temperature = 25 degC
*   Inductor Impedance Model
*   Use model for Time Domain simulations
*======================================================================
.subckt 1008PS-103_imp port1 port2 PARAMS: Cpar=2.73pF Ind=10uH
X1 port1 port2 Model1D PARAMS:
+ R1=8980
+ R2=0.88
+ C= {Cpar}
+ K1=0.0000118
+ K2=12.7
+ K3= {Ind}
+ K4=0
+ K5=0
+ L=0
+ Is=0
+ a=0
+ L_Z0=0
+ L_EL=0
+ L_F0=0E6
+ PkZ=1945.03553
.ends 1008PS-103_imp

*======================================================================
* SPICE Model generated by Coilcraft
* Coilcraft Part Number : 1008PS-153
* Inductance = 15uH
*======================================================================
* Model Parameters:
*   Valid Frequency Range = 0.1MHz-10MHz
*   Ambient Temperature = 25 degC
*   Inductor Frequency Model
*   Use model for Frequency Domain simulations
*======================================================================
.subckt 1008PS-153_freq port1 port2 PARAMS: Cpar=3.28pF Ind=15uH
X1 port1 port2 Model1B PARAMS:
+ R1=2880
+ R2=1.25
+ C= {Cpar}
+ K1=0.0000178
+ K2=18.8
+ K3= {Ind}
+ K4=0
+ K5=0
+ L=0
+ Is=0
+ a=0
+ L_Z0=0
+ L_EL=0
+ L_F0=0E6
+ PkZ=2617.13638
.ends 1008PS-153_freq

*======================================================================
* SPICE Model generated by Coilcraft
* Coilcraft Part Number : 1008PS-153
* Inductance = 15uH
*======================================================================
* Model Parameters:
*   Valid Frequency Range = 0.1MHz-10MHz
*   Ambient Temperature = 25 degC
*   Inductor Impedance Model
*   Use model for Time Domain simulations
*======================================================================
.subckt 1008PS-153_imp port1 port2 PARAMS: Cpar=3.28pF Ind=15uH
X1 port1 port2 Model1D PARAMS:
+ R1=2880
+ R2=1.25
+ C= {Cpar}
+ K1=0.0000178
+ K2=18.8
+ K3= {Ind}
+ K4=0
+ K5=0
+ L=0
+ Is=0
+ a=0
+ L_Z0=0
+ L_EL=0
+ L_F0=0E6
+ PkZ=2617.13638
.ends 1008PS-153_imp

*======================================================================
* SPICE Model generated by Coilcraft
* Coilcraft Part Number : 1008PS-223
* Inductance = 22uH
*======================================================================
* Model Parameters:
*   Valid Frequency Range = 0.1MHz-9MHz
*   Ambient Temperature = 25 degC
*   Inductor Frequency Model
*   Use model for Frequency Domain simulations
*======================================================================
.subckt 1008PS-223_freq port1 port2 PARAMS: Cpar=2.98pF Ind=22uH
X1 port1 port2 Model1B PARAMS:
+ R1=2670
+ R2=1.76
+ C= {Cpar}
+ K1=0.0000273
+ K2=27.1
+ K3= {Ind}
+ K4=0
+ K5=0
+ L=0
+ Is=0
+ a=0
+ L_Z0=0
+ L_EL=0
+ L_F0=0E6
+ PkZ=3789.5481
.ends 1008PS-223_freq

*======================================================================
* SPICE Model generated by Coilcraft
* Coilcraft Part Number : 1008PS-223
* Inductance = 22uH
*======================================================================
* Model Parameters:
*   Valid Frequency Range = 0.1MHz-9MHz
*   Ambient Temperature = 25 degC
*   Inductor Impedance Model
*   Use model for Time Domain simulations
*======================================================================
.subckt 1008PS-223_imp port1 port2 PARAMS: Cpar=2.98pF Ind=22uH
X1 port1 port2 Model1D PARAMS:
+ R1=2670
+ R2=1.76
+ C= {Cpar}
+ K1=0.0000273
+ K2=27.1
+ K3= {Ind}
+ K4=0
+ K5=0
+ L=0
+ Is=0
+ a=0
+ L_Z0=0
+ L_EL=0
+ L_F0=0E6
+ PkZ=3789.5481
.ends 1008PS-223_imp

*======================================================================
* SPICE Model generated by Coilcraft
* Coilcraft Part Number : 1008PS-333
* Inductance = 33uH
*======================================================================
* Model Parameters:
*   Valid Frequency Range = 0.1MHz-9MHz
*   Ambient Temperature = 25 degC
*   Inductor Frequency Model
*   Use model for Frequency Domain simulations
*======================================================================
.subckt 1008PS-333_freq port1 port2 PARAMS: Cpar=2.95pF Ind=33uH
X1 port1 port2 Model1B PARAMS:
+ R1=1920
+ R2=2.2
+ C= {Cpar}
+ K1=0.0000281
+ K2=41
+ K3= {Ind}
+ K4=0
+ K5=0
+ L=0
+ Is=0
+ a=0
+ L_Z0=0
+ L_EL=0
+ L_F0=0E6
+ PkZ=6488.76148
.ends 1008PS-333_freq

*======================================================================
* SPICE Model generated by Coilcraft
* Coilcraft Part Number : 1008PS-333
* Inductance = 33uH
*======================================================================
* Model Parameters:
*   Valid Frequency Range = 0.1MHz-9MHz
*   Ambient Temperature = 25 degC
*   Inductor Impedance Model
*   Use model for Time Domain simulations
*======================================================================
.subckt 1008PS-333_imp port1 port2 PARAMS: Cpar=2.95pF Ind=33uH
X1 port1 port2 Model1D PARAMS:
+ R1=1920
+ R2=2.2
+ C= {Cpar}
+ K1=0.0000281
+ K2=41
+ K3= {Ind}
+ K4=0
+ K5=0
+ L=0
+ Is=0
+ a=0
+ L_Z0=0
+ L_EL=0
+ L_F0=0E6
+ PkZ=6488.76148
.ends 1008PS-333_imp

*======================================================================
* SPICE Model generated by Coilcraft
* Coilcraft Part Number : 1008PS-393
* Inductance = 39uH
*======================================================================
* Model Parameters:
*   Valid Frequency Range = 0.1MHz-8MHz
*   Ambient Temperature = 25 degC
*   Inductor Frequency Model
*   Use model for Frequency Domain simulations
*======================================================================
.subckt 1008PS-393_freq port1 port2 PARAMS: Cpar=3.74pF Ind=39uH
X1 port1 port2 Model1B PARAMS:
+ R1=1790
+ R2=2.02
+ C= {Cpar}
+ K1=0.000036
+ K2=41.4
+ K3= {Ind}
+ K4=0
+ K5=0
+ L=0
+ Is=0
+ a=0
+ L_Z0=0
+ L_EL=0
+ L_F0=0E6
+ PkZ=6412.13616
.ends 1008PS-393_freq

*======================================================================
* SPICE Model generated by Coilcraft
* Coilcraft Part Number : 1008PS-393
* Inductance = 39uH
*======================================================================
* Model Parameters:
*   Valid Frequency Range = 0.1MHz-8MHz
*   Ambient Temperature = 25 degC
*   Inductor Impedance Model
*   Use model for Time Domain simulations
*======================================================================
.subckt 1008PS-393_imp port1 port2 PARAMS: Cpar=3.74pF Ind=39uH
X1 port1 port2 Model1D PARAMS:
+ R1=1790
+ R2=2.02
+ C= {Cpar}
+ K1=0.000036
+ K2=41.4
+ K3= {Ind}
+ K4=0
+ K5=0
+ L=0
+ Is=0
+ a=0
+ L_Z0=0
+ L_EL=0
+ L_F0=0E6
+ PkZ=6412.13616
.ends 1008PS-393_imp

*======================================================================
* SPICE Model generated by Coilcraft
* Coilcraft Part Number : 1008PS-473
* Inductance = 47uH
*======================================================================
* Model Parameters:
*   Valid Frequency Range = 0.1MHz-8MHz
*   Ambient Temperature = 25 degC
*   Inductor Frequency Model
*   Use model for Frequency Domain simulations
*======================================================================
.subckt 1008PS-473_freq port1 port2 PARAMS: Cpar=3.47pF Ind=47uH
X1 port1 port2 Model1B PARAMS:
+ R1=1010
+ R2=2.99
+ C= {Cpar}
+ K1=0.0000397
+ K2=56.3
+ K3= {Ind}
+ K4=0
+ K5=0
+ L=0
+ Is=0
+ a=0
+ L_Z0=0
+ L_EL=0
+ L_F0=0E6
+ PkZ=13026.6254
.ends 1008PS-473_freq

*======================================================================
* SPICE Model generated by Coilcraft
* Coilcraft Part Number : 1008PS-473
* Inductance = 47uH
*======================================================================
* Model Parameters:
*   Valid Frequency Range = 0.1MHz-8MHz
*   Ambient Temperature = 25 degC
*   Inductor Impedance Model
*   Use model for Time Domain simulations
*======================================================================
.subckt 1008PS-473_imp port1 port2 PARAMS: Cpar=3.47pF Ind=47uH
X1 port1 port2 Model1D PARAMS:
+ R1=1010
+ R2=2.99
+ C= {Cpar}
+ K1=0.0000397
+ K2=56.3
+ K3= {Ind}
+ K4=0
+ K5=0
+ L=0
+ Is=0
+ a=0
+ L_Z0=0
+ L_EL=0
+ L_F0=0E6
+ PkZ=13026.6254
.ends 1008PS-473_imp

*======================================================================
* SPICE Model generated by Coilcraft
* Coilcraft Part Number : 1008PS-683
* Inductance = 68uH
*======================================================================
* Model Parameters:
*   Valid Frequency Range = 0.1MHz-7MHz
*   Ambient Temperature = 25 degC
*   Inductor Frequency Model
*   Use model for Frequency Domain simulations
*======================================================================
.subckt 1008PS-683_freq port1 port2 PARAMS: Cpar=3.48pF Ind=68uH
X1 port1 port2 Model1B PARAMS:
+ R1=559
+ R2=4.17
+ C= {Cpar}
+ K1=0.0000475
+ K2=71.7
+ K3= {Ind}
+ K4=0
+ K5=0
+ L=0
+ Is=0
+ a=0
+ L_Z0=0
+ L_EL=0
+ L_F0=0E6
+ PkZ=30589.2187
.ends 1008PS-683_freq

*======================================================================
* SPICE Model generated by Coilcraft
* Coilcraft Part Number : 1008PS-683
* Inductance = 68uH
*======================================================================
* Model Parameters:
*   Valid Frequency Range = 0.1MHz-7MHz
*   Ambient Temperature = 25 degC
*   Inductor Impedance Model
*   Use model for Time Domain simulations
*======================================================================
.subckt 1008PS-683_imp port1 port2 PARAMS: Cpar=3.48pF Ind=68uH
X1 port1 port2 Model1D PARAMS:
+ R1=559
+ R2=4.17
+ C= {Cpar}
+ K1=0.0000475
+ K2=71.7
+ K3= {Ind}
+ K4=0
+ K5=0
+ L=0
+ Is=0
+ a=0
+ L_Z0=0
+ L_EL=0
+ L_F0=0E6
+ PkZ=30589.2187
.ends 1008PS-683_imp

*======================================================================
* SPICE Model generated by Coilcraft
* Coilcraft Part Number : 1008PS-823
* Inductance = 82uH
*======================================================================
* Model Parameters:
*   Valid Frequency Range = 0.1MHz-6MHz
*   Ambient Temperature = 25 degC
*   Inductor Frequency Model
*   Use model for Frequency Domain simulations
*======================================================================
.subckt 1008PS-823_freq port1 port2 PARAMS: Cpar=4.36pF Ind=82uH
X1 port1 port2 Model1B PARAMS:
+ R1=506
+ R2=4.2
+ C= {Cpar}
+ K1=0.0000644
+ K2=77
+ K3= {Ind}
+ K4=0
+ K5=0
+ L=0
+ Is=0
+ a=0
+ L_Z0=0
+ L_EL=0
+ L_F0=0E6
+ PkZ=32072.4218
.ends 1008PS-823_freq

*======================================================================
* SPICE Model generated by Coilcraft
* Coilcraft Part Number : 1008PS-823
* Inductance = 82uH
*======================================================================
* Model Parameters:
*   Valid Frequency Range = 0.1MHz-6MHz
*   Ambient Temperature = 25 degC
*   Inductor Impedance Model
*   Use model for Time Domain simulations
*======================================================================
.subckt 1008PS-823_imp port1 port2 PARAMS: Cpar=4.36pF Ind=82uH
X1 port1 port2 Model1D PARAMS:
+ R1=506
+ R2=4.2
+ C= {Cpar}
+ K1=0.0000644
+ K2=77
+ K3= {Ind}
+ K4=0
+ K5=0
+ L=0
+ Is=0
+ a=0
+ L_Z0=0
+ L_EL=0
+ L_F0=0E6
+ PkZ=32072.4218
.ends 1008PS-823_imp

*======================================================================
* SPICE Model generated by Coilcraft
* Coilcraft Part Number : 1008PS-104
* Inductance = 100uH
*======================================================================
* Model Parameters:
*   Valid Frequency Range = 0.1MHz-4MHz
*   Ambient Temperature = 25 degC
*   Inductor Frequency Model
*   Use model for Frequency Domain simulations
*======================================================================
.subckt 1008PS-104_freq port1 port2 PARAMS: Cpar=4.52pF Ind=100uH
X1 port1 port2 Model1B PARAMS:
+ R1=553
+ R2=5.39
+ C= {Cpar}
+ K1=0.000126
+ K2=97.9
+ K3= {Ind}
+ K4=0
+ K5=0
+ L=0
+ Is=0
+ a=0
+ L_Z0=0
+ L_EL=0
+ L_F0=0E6
+ PkZ=35030.1548
.ends 1008PS-104_freq

*======================================================================
* SPICE Model generated by Coilcraft
* Coilcraft Part Number : 1008PS-104
* Inductance = 100uH
*======================================================================
* Model Parameters:
*   Valid Frequency Range = 0.1MHz-4MHz
*   Ambient Temperature = 25 degC
*   Inductor Impedance Model
*   Use model for Time Domain simulations
*======================================================================
.subckt 1008PS-104_imp port1 port2 PARAMS: Cpar=4.52pF Ind=100uH
X1 port1 port2 Model1D PARAMS:
+ R1=553
+ R2=5.39
+ C= {Cpar}
+ K1=0.000126
+ K2=97.9
+ K3= {Ind}
+ K4=0
+ K5=0
+ L=0
+ Is=0
+ a=0
+ L_Z0=0
+ L_EL=0
+ L_F0=0E6
+ PkZ=35030.1548
.ends 1008PS-104_imp

*======================================================================
* SPICE Model generated by Coilcraft
* Coilcraft Part Number : 1008PS-124
* Inductance = 120uH
*======================================================================
* Model Parameters:
*   Valid Frequency Range = 0.1MHz-4MHz
*   Ambient Temperature = 25 degC
*   Inductor Frequency Model
*   Use model for Frequency Domain simulations
*======================================================================
.subckt 1008PS-124_freq port1 port2 PARAMS: Cpar=4.79pF Ind=120uH
X1 port1 port2 Model1B PARAMS:
+ R1=594
+ R2=6.48
+ C= {Cpar}
+ K1=0.000197
+ K2=111
+ K3= {Ind}
+ K4=0
+ K5=0
+ L=0
+ Is=0
+ a=0
+ L_Z0=0
+ L_EL=0
+ L_F0=0E6
+ PkZ=36987.594
.ends 1008PS-124_freq

*======================================================================
* SPICE Model generated by Coilcraft
* Coilcraft Part Number : 1008PS-124
* Inductance = 120uH
*======================================================================
* Model Parameters:
*   Valid Frequency Range = 0.1MHz-4MHz
*   Ambient Temperature = 25 degC
*   Inductor Impedance Model
*   Use model for Time Domain simulations
*======================================================================
.subckt 1008PS-124_imp port1 port2 PARAMS: Cpar=4.79pF Ind=120uH
X1 port1 port2 Model1D PARAMS:
+ R1=594
+ R2=6.48
+ C= {Cpar}
+ K1=0.000197
+ K2=111
+ K3= {Ind}
+ K4=0
+ K5=0
+ L=0
+ Is=0
+ a=0
+ L_Z0=0
+ L_EL=0
+ L_F0=0E6
+ PkZ=36987.594
.ends 1008PS-124_imp

*======================================================================
* SPICE Model generated by Coilcraft
* Coilcraft Part Number : 1008PS-154
* Inductance = 150uH
*======================================================================
* Model Parameters:
*   Valid Frequency Range = 0.1MHz-3.5MHz
*   Ambient Temperature = 25 degC
*   Inductor Frequency Model
*   Use model for Frequency Domain simulations
*======================================================================
.subckt 1008PS-154_freq port1 port2 PARAMS: Cpar=5.69pF Ind=150uH
X1 port1 port2 Model1B PARAMS:
+ R1=462
+ R2=6.68
+ C= {Cpar}
+ K1=0.000291
+ K2=123
+ K3= {Ind}
+ K4=0
+ K5=0
+ L=0
+ Is=0
+ a=0
+ L_Z0=0
+ L_EL=0
+ L_F0=0E6
+ PkZ=47734.9309
.ends 1008PS-154_freq

*======================================================================
* SPICE Model generated by Coilcraft
* Coilcraft Part Number : 1008PS-154
* Inductance = 150uH
*======================================================================
* Model Parameters:
*   Valid Frequency Range = 0.1MHz-3.5MHz
*   Ambient Temperature = 25 degC
*   Inductor Impedance Model
*   Use model for Time Domain simulations
*======================================================================
.subckt 1008PS-154_imp port1 port2 PARAMS: Cpar=5.69pF Ind=150uH
X1 port1 port2 Model1D PARAMS:
+ R1=462
+ R2=6.68
+ C= {Cpar}
+ K1=0.000291
+ K2=123
+ K3= {Ind}
+ K4=0
+ K5=0
+ L=0
+ Is=0
+ a=0
+ L_Z0=0
+ L_EL=0
+ L_F0=0E6
+ PkZ=47734.9309
.ends 1008PS-154_imp

*======================================================================
* SPICE Model generated by Coilcraft
* Coilcraft Part Number : 1008PS-224
* Inductance = 220uH
*======================================================================
* Model Parameters:
*   Valid Frequency Range = 0.1MHz-4MHz
*   Ambient Temperature = 25 degC
*   Inductor Frequency Model
*   Use model for Frequency Domain simulations
*======================================================================
.subckt 1008PS-224_freq port1 port2 PARAMS: Cpar=3.63pF Ind=220uH