*======================================================================
* SPICE Model generated by Coilcraft
* Coilcraft Part Number : 1206CS-030
* Inductance = 3.4nH
*======================================================================
* Model Parameters:
*   Valid Frequency Range = 0.001GHz-12.8GHz
*   Ambient Temperature = 25 degC
*   Inductor Frequency Model
*   Use model for Frequency Domain simulations
*======================================================================
.subckt 1206CS-030_freq port1 port2 PARAMS: Cpar=0.051pF Ind=3.4nH
X1 port1 port2 Model2A PARAMS:
+ R1=12
+ R2=0.1
+ C= {Cpar}
+ K1=0.00000435
+ K2=0
+ K3= {Ind}
+ K4=0
+ K5=0
+ L=0
+ Is=0
+ a=0
+ L_Z0=0
+ L_EL=0
+ L_F0=0E6
+ PkZ=0
.ends 1206CS-030_freq

*======================================================================
* SPICE Model generated by Coilcraft
* Coilcraft Part Number : 1206CS-060
* Inductance = 6.8nH
*======================================================================
* Model Parameters:
*   Valid Frequency Range = 0.001GHz-10.9GHz
*   Ambient Temperature = 25 degC
*   Inductor Frequency Model
*   Use model for Frequency Domain simulations
*======================================================================
.subckt 1206CS-060_freq port1 port2 PARAMS: Cpar=0.035pF Ind=6.8nH
X1 port1 port2 Model2A PARAMS:
+ R1=11
+ R2=0.1
+ C= {Cpar}
+ K1=0.0000137
+ K2=0
+ K3= {Ind}
+ K4=0
+ K5=0
+ L=0
+ Is=0
+ a=0
+ L_Z0=0
+ L_EL=0
+ L_F0=0E6
+ PkZ=0
.ends 1206CS-060_freq

*======================================================================
* SPICE Model generated by Coilcraft
* Coilcraft Part Number : 1206CS-100
* Inductance = 11.5nH
*======================================================================
* Model Parameters:
*   Valid Frequency Range = 0.001GHz-7.9GHz
*   Ambient Temperature = 25 degC
*   Inductor Frequency Model
*   Use model for Frequency Domain simulations
*======================================================================
.subckt 1206CS-100_freq port1 port2 PARAMS: Cpar=0.043pF Ind=11.5nH
X1 port1 port2 Model2A PARAMS:
+ R1=11
+ R2=0.1
+ C= {Cpar}
+ K1=0.0000195
+ K2=0
+ K3= {Ind}
+ K4=0
+ K5=0
+ L=0
+ Is=0
+ a=0
+ L_Z0=0
+ L_EL=0
+ L_F0=0E6
+ PkZ=0
.ends 1206CS-100_freq

*======================================================================
* SPICE Model generated by Coilcraft
* Coilcraft Part Number : 1206CS-120
* Inductance = 15nH
*======================================================================
* Model Parameters:
*   Valid Frequency Range = 0.001GHz-4.9GHz
*   Ambient Temperature = 25 degC
*   Inductor Frequency Model
*   Use model for Frequency Domain simulations
*======================================================================
.subckt 1206CS-120_freq port1 port2 PARAMS: Cpar=0.086pF Ind=15nH
X1 port1 port2 Model2A PARAMS:
+ R1=11
+ R2=0.1
+ C= {Cpar}
+ K1=0.0000258
+ K2=0
+ K3= {Ind}
+ K4=0
+ K5=0
+ L=0
+ Is=0
+ a=0
+ L_Z0=0
+ L_EL=0
+ L_F0=0E6
+ PkZ=0
.ends 1206CS-120_freq

*======================================================================
* SPICE Model generated by Coilcraft
* Coilcraft Part Number : 1206CS-150
* Inductance = 18nH
*======================================================================
* Model Parameters:
*   Valid Frequency Range = 0.001GHz-5.9GHz
*   Ambient Temperature = 25 degC
*   Inductor Frequency Model
*   Use model for Frequency Domain simulations
*======================================================================
.subckt 1206CS-150_freq port1 port2 PARAMS: Cpar=0.05pF Ind=18nH
X1 port1 port2 Model2A PARAMS:
+ R1=8
+ R2=0.1
+ C= {Cpar}
+ K1=0.0000302
+ K2=0
+ K3= {Ind}
+ K4=0
+ K5=0
+ L=0
+ Is=0
+ a=0
+ L_Z0=0
+ L_EL=0
+ L_F0=0E6
+ PkZ=0
.ends 1206CS-150_freq

*======================================================================
* SPICE Model generated by Coilcraft
* Coilcraft Part Number : 1206CS-180
* Inductance = 21nH
*======================================================================
* Model Parameters:
*   Valid Frequency Range = 0.001GHz-4.4GHz
*   Ambient Temperature = 25 degC
*   Inductor Frequency Model
*   Use model for Frequency Domain simulations
*======================================================================
.subckt 1206CS-180_freq port1 port2 PARAMS: Cpar=0.078pF Ind=21nH
X1 port1 port2 Model2A PARAMS:
+ R1=12
+ R2=0.1
+ C= {Cpar}
+ K1=0.0000322
+ K2=0
+ K3= {Ind}
+ K4=0
+ K5=0
+ L=0
+ Is=0
+ a=0
+ L_Z0=0
+ L_EL=0
+ L_F0=0E6
+ PkZ=0
.ends 1206CS-180_freq

*======================================================================
* SPICE Model generated by Coilcraft
* Coilcraft Part Number : 1206CS-220
* Inductance = 24nH
*======================================================================
* Model Parameters:
*   Valid Frequency Range = 0.001GHz-3.6GHz
*   Ambient Temperature = 25 degC
*   Inductor Frequency Model
*   Use model for Frequency Domain simulations
*======================================================================
.subckt 1206CS-220_freq port1 port2 PARAMS: Cpar=0.101pF Ind=24nH
X1 port1 port2 Model2A PARAMS:
+ R1=14
+ R2=0.1
+ C= {Cpar}
+ K1=0.0000397
+ K2=0
+ K3= {Ind}
+ K4=0
+ K5=0
+ L=0
+ Is=0
+ a=0
+ L_Z0=0
+ L_EL=0
+ L_F0=0E6
+ PkZ=0
.ends 1206CS-220_freq

*======================================================================
* SPICE Model generated by Coilcraft
* Coilcraft Part Number : 1206CS-270
* Inductance = 29nH
*======================================================================
* Model Parameters:
*   Valid Frequency Range = 0.001GHz-3.6GHz
*   Ambient Temperature = 25 degC
*   Inductor Frequency Model
*   Use model for Frequency Domain simulations
*======================================================================
.subckt 1206CS-270_freq port1 port2 PARAMS: Cpar=0.082pF Ind=29nH
X1 port1 port2 Model2A PARAMS:
+ R1=14
+ R2=0.1
+ C= {Cpar}
+ K1=0.0000467
+ K2=0
+ K3= {Ind}
+ K4=0
+ K5=0
+ L=0
+ Is=0
+ a=0
+ L_Z0=0
+ L_EL=0
+ L_F0=0E6
+ PkZ=0
.ends 1206CS-270_freq

*======================================================================
* SPICE Model generated by Coilcraft
* Coilcraft Part Number : 1206CS-330
* Inductance = 35nH
*======================================================================
* Model Parameters:
*   Valid Frequency Range = 0.001GHz-2.6GHz
*   Ambient Temperature = 25 degC
*   Inductor Frequency Model
*   Use model for Frequency Domain simulations
*======================================================================
.subckt 1206CS-330_freq port1 port2 PARAMS: Cpar=0.131pF Ind=35nH
X1 port1 port2 Model2A PARAMS:
+ R1=10
+ R2=0.1
+ C= {Cpar}
+ K1=0.0000495
+ K2=0
+ K3= {Ind}
+ K4=0
+ K5=0
+ L=0
+ Is=0
+ a=0
+ L_Z0=0
+ L_EL=0
+ L_F0=0E6
+ PkZ=0
.ends 1206CS-330_freq

*======================================================================
* SPICE Model generated by Coilcraft
* Coilcraft Part Number : 1206CS-390
* Inductance = 39nH
*======================================================================
* Model Parameters:
*   Valid Frequency Range = 0.001GHz-3.1GHz
*   Ambient Temperature = 25 degC
*   Inductor Frequency Model
*   Use model for Frequency Domain simulations
*======================================================================
.subckt 1206CS-390_freq port1 port2 PARAMS: Cpar=0.086pF Ind=39nH
X1 port1 port2 Model2A PARAMS:
+ R1=12
+ R2=0.1
+ C= {Cpar}
+ K1=0.0000621
+ K2=0
+ K3= {Ind}
+ K4=0
+ K5=0
+ L=0
+ Is=0
+ a=0
+ L_Z0=0
+ L_EL=0
+ L_F0=0E6
+ PkZ=0
.ends 1206CS-390_freq

*======================================================================
* SPICE Model generated by Coilcraft
* Coilcraft Part Number : 1206CS-470
* Inductance = 47nH
*======================================================================
* Model Parameters:
*   Valid Frequency Range = 0.001GHz-2.4GHz
*   Ambient Temperature = 25 degC
*   Inductor Frequency Model
*   Use model for Frequency Domain simulations
*======================================================================
.subckt 1206CS-470_freq port1 port2 PARAMS: Cpar=0.115pF Ind=47nH
X1 port1 port2 Model2A PARAMS:
+ R1=14
+ R2=0.1
+ C= {Cpar}
+ K1=0.0000731
+ K2=0
+ K3= {Ind}
+ K4=0
+ K5=0
+ L=0
+ Is=0
+ a=0
+ L_Z0=0
+ L_EL=0
+ L_F0=0E6
+ PkZ=0
.ends 1206CS-470_freq

*======================================================================
* SPICE Model generated by Coilcraft
* Coilcraft Part Number : 1206CS-560
* Inductance = 56nH
*======================================================================
* Model Parameters:
*   Valid Frequency Range = 0.001GHz-2.3GHz
*   Ambient Temperature = 25 degC
*   Inductor Frequency Model
*   Use model for Frequency Domain simulations
*======================================================================
.subckt 1206CS-560_freq port1 port2 PARAMS: Cpar=0.107pF Ind=56nH
X1 port1 port2 Model2A PARAMS:
+ R1=13
+ R2=0.1
+ C= {Cpar}
+ K1=0.00009
+ K2=0
+ K3= {Ind}
+ K4=0
+ K5=0
+ L=0
+ Is=0
+ a=0
+ L_Z0=0
+ L_EL=0
+ L_F0=0E6
+ PkZ=0
.ends 1206CS-560_freq

*======================================================================
* SPICE Model generated by Coilcraft
* Coilcraft Part Number : 1206CS-680
* Inductance = 68nH
*======================================================================
* Model Parameters:
*   Valid Frequency Range = 0.001GHz-1.9GHz
*   Ambient Temperature = 25 degC
*   Inductor Frequency Model
*   Use model for Frequency Domain simulations
*======================================================================
.subckt 1206CS-680_freq port1 port2 PARAMS: Cpar=0.127pF Ind=68nH
X1 port1 port2 Model2A PARAMS:
+ R1=10
+ R2=0.2
+ C= {Cpar}
+ K1=0.000103
+ K2=0
+ K3= {Ind}
+ K4=0
+ K5=0
+ L=0
+ Is=0
+ a=0
+ L_Z0=0
+ L_EL=0
+ L_F0=0E6
+ PkZ=0
.ends 1206CS-680_freq

*======================================================================
* SPICE Model generated by Coilcraft
* Coilcraft Part Number : 1206CS-820
* Inductance = 83nH
*======================================================================
* Model Parameters:
*   Valid Frequency Range = 0.001GHz-2.1GHz
*   Ambient Temperature = 25 degC
*   Inductor Frequency Model
*   Use model for Frequency Domain simulations
*======================================================================
.subckt 1206CS-820_freq port1 port2 PARAMS: Cpar=0.089pF Ind=83nH
X1 port1 port2 Model2A PARAMS:
+ R1=12
+ R2=0.2
+ C= {Cpar}
+ K1=0.00013
+ K2=0
+ K3= {Ind}
+ K4=0
+ K5=0
+ L=0
+ Is=0
+ a=0
+ L_Z0=0
+ L_EL=0
+ L_F0=0E6
+ PkZ=0
.ends 1206CS-820_freq

*======================================================================
* SPICE Model generated by Coilcraft
* Coilcraft Part Number : 1206CS-101
* Inductance = 100nH
*======================================================================
* Model Parameters:
*   Valid Frequency Range = 0.001GHz-1.9GHz
*   Ambient Temperature = 25 degC
*   Inductor Frequency Model
*   Use model for Frequency Domain simulations
*======================================================================
.subckt 1206CS-101_freq port1 port2 PARAMS: Cpar=0.091pF Ind=100nH
X1 port1 port2 Model2A PARAMS:
+ R1=10
+ R2=0.2
+ C= {Cpar}
+ K1=0.000157
+ K2=0
+ K3= {Ind}
+ K4=0
+ K5=0
+ L=0
+ Is=0
+ a=0
+ L_Z0=0
+ L_EL=0
+ L_F0=0E6
+ PkZ=0
.ends 1206CS-101_freq

*======================================================================
* SPICE Model generated by Coilcraft
* Coilcraft Part Number : 1206CS-121
* Inductance = 118nH
*======================================================================
* Model Parameters:
*   Valid Frequency Range = 0.001GHz-2.15GHz
*   Ambient Temperature = 25 degC
*   Inductor Frequency Model
*   Use model for Frequency Domain simulations
*======================================================================
.subckt 1206CS-121_freq port1 port2 PARAMS: Cpar=0.052pF Ind=118nH
X1 port1 port2 Model2A PARAMS:
+ R1=18
+ R2=0.2
+ C= {Cpar}
+ K1=0.000173
+ K2=0
+ K3= {Ind}
+ K4=0
+ K5=0
+ L=0
+ Is=0
+ a=0
+ L_Z0=0
+ L_EL=0
+ L_F0=0E6
+ PkZ=0
.ends 1206CS-121_freq

*======================================================================
* SPICE Model generated by Coilcraft
* Coilcraft Part Number : 1206CS-151
* Inductance = 140nH
*======================================================================
* Model Parameters:
*   Valid Frequency Range = 0.001GHz-1.6GHz
*   Ambient Temperature = 25 degC
*   Inductor Frequency Model
*   Use model for Frequency Domain simulations
*======================================================================
.subckt 1206CS-151_freq port1 port2 PARAMS: Cpar=0.089pF Ind=140nH
X1 port1 port2 Model2A PARAMS:
+ R1=20
+ R2=0.3
+ C= {Cpar}
+ K1=0.000191
+ K2=0
+ K3= {Ind}
+ K4=0
+ K5=0
+ L=0
+ Is=0
+ a=0
+ L_Z0=0
+ L_EL=0
+ L_F0=0E6
+ PkZ=0
.ends 1206CS-151_freq

*======================================================================
* SPICE Model generated by Coilcraft
* Coilcraft Part Number : 1206CS-181
* Inductance = 183nH
*======================================================================
* Model Parameters:
*   Valid Frequency Range = 0.001GHz-1.6GHz
*   Ambient Temperature = 25 degC
*   Inductor Frequency Model
*   Use model for Frequency Domain simulations
*======================================================================
.subckt 1206CS-181_freq port1 port2 PARAMS: Cpar=0.067pF Ind=183nH
X1 port1 port2 Model2A PARAMS:
+ R1=15
+ R2=0.4
+ C= {Cpar}
+ K1=0.000267
+ K2=0
+ K3= {Ind}
+ K4=0
+ K5=0
+ L=0
+ Is=0
+ a=0
+ L_Z0=0
+ L_EL=0
+ L_F0=0E6
+ PkZ=0
.ends 1206CS-181_freq

*======================================================================
* SPICE Model generated by Coilcraft
* Coilcraft Part Number : 1206CS-221
* Inductance = 223nH
*======================================================================
* Model Parameters:
*   Valid Frequency Range = 0.001GHz-1.3GHz
*   Ambient Temperature = 25 degC
*   Inductor Frequency Model
*   Use model for Frequency Domain simulations
*======================================================================
.subckt 1206CS-221_freq port1 port2 PARAMS: Cpar=0.082pF Ind=223nH
X1 port1 port2 Model2A PARAMS:
+ R1=25
+ R2=0.5
+ C= {Cpar}
+ K1=0.000315
+ K2=0
+ K3= {Ind}
+ K4=0
+ K5=0
+ L=0
+ Is=0
+ a=0
+ L_Z0=0
+ L_EL=0
+ L_F0=0E6
+ PkZ=0
.ends 1206CS-221_freq

*======================================================================
* SPICE Model generated by Coilcraft
* Coilcraft Part Number : 1206CS-271
* Inductance = 280nH
*======================================================================
* Model Parameters:
*   Valid Frequency Range = 0.001GHz-1.3GHz
*   Ambient Temperature = 25 degC
*   Inductor Frequency Model
*   Use model for Frequency Domain simulations
*======================================================================
.subckt 1206CS-271_freq port1 port2 PARAMS: Cpar=0.074pF Ind=280nH
X1 port1 port2 Model2A PARAMS:
+ R1=25
+ R2=0.5
+ C= {Cpar}
+ K1=0.000395
+ K2=0
+ K3= {Ind}
+ K4=0
+ K5=0
+ L=0
+ Is=0
+ a=0
+ L_Z0=0
+ L_EL=0
+ L_F0=0E6
+ PkZ=0
.ends 1206CS-271_freq

*======================================================================
* SPICE Model generated by Coilcraft
* Coilcraft Part Number : 1206CS-331
* Inductance = 329nH
*======================================================================
* Model Parameters:
*   Valid Frequency Range = 0.001GHz-1.2GHz
*   Ambient Temperature = 25 degC
*   Inductor Frequency Model
*   Use model for Frequency Domain simulations
*======================================================================
.subckt 1206CS-331_freq port1 port2 PARAMS: Cpar=0.071pF Ind=329nH
X1 port1 port2 Model2A PARAMS:
+ R1=33
+ R2=0.6
+ C= {Cpar}
+ K1=0.000401
+ K2=0
+ K3= {Ind}
+ K4=0
+ K5=0
+ L=0
+ Is=0
+ a=0
+ L_Z0=0
+ L_EL=0
+ L_F0=0E6
+ PkZ=0
.ends 1206CS-331_freq

*======================================================================
* SPICE Model generated by Coilcraft
* Coilcraft Part Number : 1206CS-391
* Inductance = 390nH
*======================================================================
* Model Parameters:
*   Valid Frequency Range = 0.001GHz-1.1GHz
*   Ambient Temperature = 25 degC
*   Inductor Frequency Model
*   Use model for Frequency Domain simulations
*======================================================================
.subckt 1206CS-391_freq port1 port2 PARAMS: Cpar=0.058pF Ind=390nH
X1 port1 port2 Model2A PARAMS:
+ R1=35
+ R2=0.7
+ C= {Cpar}
+ K1=0.000485
+ K2=0
+ K3= {Ind}
+ K4=0
+ K5=0
+ L=0
+ Is=0
+ a=0
+ L_Z0=0
+ L_EL=0
+ L_F0=0E6
+ PkZ=0
.ends 1206CS-391_freq

*======================================================================
* SPICE Model generated by Coilcraft
* Coilcraft Part Number : 1206CS-471
* Inductance = 470nH
*======================================================================
* Model Parameters:
*   Valid Frequency Range = 0.001GHz-1GHz
*   Ambient Temperature = 25 degC
*   Inductor Frequency Model
*   Use model for Frequency Domain simulations
*======================================================================
.subckt 1206CS-471_freq port1 port2 PARAMS: Cpar=0.075pF Ind=470nH
X1 port1 port2 Model2A PARAMS:
+ R1=35
+ R2=1.3
+ C= {Cpar}
+ K1=0.000602
+ K2=0
+ K3= {Ind}
+ K4=0
+ K5=0
+ L=0
+ Is=0
+ a=0
+ L_Z0=0
+ L_EL=0
+ L_F0=0E6
+ PkZ=0
.ends 1206CS-471_freq

*======================================================================
* SPICE Model generated by Coilcraft
* Coilcraft Part Number : 1206CS-561
* Inductance = 557nH
*======================================================================
* Model Parameters:
*   Valid Frequency Range = 0.001GHz-0.9GHz
*   Ambient Temperature = 25 degC
*   Inductor Frequency Model
*   Use model for Frequency Domain simulations
*======================================================================
.subckt 1206CS-561_freq port1 port2 PARAMS: Cpar=0.067pF Ind=557nH
X1 port1 port2 Model2A PARAMS:
+ R1=25
+ R2=1.3
+ C= {Cpar}
+ K1=0.00067
+ K2=0
+ K3= {Ind}
+ K4=0
+ K5=0
+ L=0
+ Is=0
+ a=0
+ L_Z0=0
+ L_EL=0
+ L_F0=0E6
+ PkZ=0
.ends 1206CS-561_freq

*======================================================================
* SPICE Model generated by Coilcraft
* Coilcraft Part Number : 1206CS-621
* Inductance = 615nH
*======================================================================
* Model Parameters:
*   Valid Frequency Range = 0.001GHz-0.8GHz
*   Ambient Temperature = 25 degC
*   Inductor Frequency Model
*   Use model for Frequency Domain simulations
*======================================================================
.subckt 1206CS-621_freq port1 port2 PARAMS: Cpar=0.071pF Ind=615nH
X1 port1 port2 Model2A PARAMS:
+ R1=28
+ R2=1.5
+ C= {Cpar}
+ K1=0.000671
+ K2=0
+ K3= {Ind}
+ K4=0
+ K5=0
+ L=0
+ Is=0
+ a=0
+ L_Z0=0
+ L_EL=0
+ L_F0=0E6
+ PkZ=0
.ends 1206CS-621_freq

*======================================================================
* SPICE Model generated by Coilcraft
* Coilcraft Part Number : 1206CS-681
* Inductance = 670nH
*======================================================================
* Model Parameters:
*   Valid Frequency Range = 0.001GHz-0.85GHz
*   Ambient Temperature = 25 degC
*   Inductor Frequency Model
*   Use model for Frequency Domain simulations
*======================================================================
.subckt 1206CS-681_freq port1 port2 PARAMS: Cpar=0.059pF Ind=670nH
X1 port1 port2 Model2A PARAMS:
+ R1=28
+ R2=1.5
+ C= {Cpar}
+ K1=0.000751
+ K2=0
+ K3= {Ind}
+ K4=0
+ K5=0
+ L=0
+ Is=0
+ a=0
+ L_Z0=0
+ L_EL=0
+ L_F0=0E6
+ PkZ=0
.ends 1206CS-681_freq

*======================================================================
* SPICE Model generated by Coilcraft
* Coilcraft Part Number : 1206CS-751
* Inductance = 720nH
*======================================================================
* Model Parameters:
*   Valid Frequency Range = 0.001GHz-0.76GHz
*   Ambient Temperature = 25 degC
*   Inductor Frequency Model
*   Use model for Frequency Domain simulations
*======================================================================
.subckt 1206CS-751_freq port1 port2 PARAMS: Cpar=0.062pF Ind=720nH
X1 port1 port2 Model2A PARAMS:
+ R1=5
+ R2=2.2
+ C= {Cpar}
+ K1=0.00084
+ K2=0
+ K3= {Ind}
+ K4=0
+ K5=0
+ L=0
+ Is=0
+ a=0
+ L_Z0=0
+ L_EL=0
+ L_F0=0E6
+ PkZ=0
.ends 1206CS-751_freq

*======================================================================
* SPICE Model generated by Coilcraft
* Coilcraft Part Number : 1206CS-821
* Inductance = 775nH
*======================================================================
* Model Parameters:
*   Valid Frequency Range = 0.001GHz-0.76GHz
*   Ambient Temperature = 25 degC
*   Inductor Frequency Model
*   Use model for Frequency Domain simulations
*======================================================================
.subckt 1206CS-821_freq port1 port2 PARAMS: Cpar=0.06pF Ind=775nH
X1 port1 port2 Model2A PARAMS:
+ R1=5
+ R2=1.8
+ C= {Cpar}
+ K1=0.00097
+ K2=0
+ K3= {Ind}
+ K4=0
+ K5=0
+ L=0
+ Is=0
+ a=0
+ L_Z0=0
+ L_EL=0
+ L_F0=0E6
+ PkZ=0
.ends 1206CS-821_freq

*======================================================================
* SPICE Model generated by Coilcraft
* Coilcraft Part Number : 1206CS-911
* Inductance = 810nH
*======================================================================
* Model Parameters:
*   Valid Frequency Range = 0.001GHz-0.73GHz
*   Ambient Temperature = 25 degC
*   Inductor Frequency Model
*   Use model for Frequency Domain simulations
*======================================================================
.subckt 1206CS-911_freq port1 port2 PARAMS: Cpar=0.063pF Ind=810nH
X1 port1 port2 Model2A PARAMS:
+ R1=5
+ R2=2.8
+ C= {Cpar}
+ K1=0.00101
+ K2=0
+ K3= {Ind}
+ K4=0
+ K5=0
+ L=0
+ Is=0
+ a=0
+ L_Z0=0
+ L_EL=0
+ L_F0=0E6
+ PkZ=0
.ends 1206CS-911_freq

*======================================================================
* SPICE Model generated by Coilcraft
* Coilcraft Part Number : 1206CS-102
* Inductance = 835nH
*======================================================================
* Model Parameters:
*   Valid Frequency Range = 0.001GHz-0.73GHz
*   Ambient Temperature = 25 degC
*   Inductor Frequency Model
*   Use model for Frequency Domain simulations
*======================================================================
.subckt 1206CS-102_freq port1 port2 PARAMS: Cpar=0.059pF Ind=835nH
X1 port1 port2 Model2A PARAMS:
+ R1=125
+ R2=2.8
+ C= {Cpar}
+ K1=0.00099
+ K2=0
+ K3= {Ind}
+ K4=0
+ K5=0
+ L=0
+ Is=0
+ a=0
+ L_Z0=0
+ L_EL=0
+ L_F0=0E6
+ PkZ=0
.ends 1206CS-102_freq

*======================================================================
* SPICE Model generated by Coilcraft
* Coilcraft Part Number : 1206CS-122
* Inductance = 1060nH
*======================================================================
* Model Parameters:
*   Valid Frequency Range = 0.001GHz-0.65GHz
*   Ambient Temperature = 25 degC
*   Inductor Frequency Model
*   Use model for Frequency Domain simulations
*======================================================================
.subckt 1206CS-122_freq port1 port2 PARAMS: Cpar=0.06pF Ind=1060nH
X1 port1 port2 Model2A PARAMS:
+ R1=100
+ R2=3.2
+ C= {Cpar}
+ K1=0.00133
+ K2=0
+ K3= {Ind}
+ K4=0
+ K5=0
+ L=0
+ Is=0
+ a=0
+ L_Z0=0
+ L_EL=0
+ L_F0=0E6
+ PkZ=0
.ends 1206CS-122_freq

*======================================================================
* SPICE Model generated by Coilcraft
* Coilcraft RF Inductor Model
*======================================================================
* Model Parameters:
*   Valid Frequency Range Varies by Inductor
*   Ambient Temperature = 25 degC
*   DC Bias Current = 0 A
*   Frequency Dependent Inductor Model
*======================================================================
.subckt Model2A Lin Lout PARAMS:
+ R1=1
+ R2=1
+ C=1
+ K1=1
+ K3=1
R2 N001 Lin {R2}
R1 Lout N002 {R1}
C1 N002 N001 {C}
G_Rvar1 N001 N003 LAPLACE { V(N001, N003) } {1/K1/(-S*S/4/PI^2)^0.25}
L1 N003 Lout = {K3}
.ends Model2A








.subckt Coilcraft_Inductor Lin Lout
R1 Lout Lin 100Meg
.ends Coilcraft_Inductor
