*======================================================================
* SPICE Model generated by Coilcraft
* Coilcraft Part Number : 1812FS-102
* Inductance = 1uH
*======================================================================
* Model Parameters:
*   Valid Frequency Range = 0.1MHz-400MHz
*   Ambient Temperature = 25 degC
*   Inductor Frequency Model
*   Use model for Frequency Domain simulations
*======================================================================
.subckt 1812FS-102_freq port1 port2 PARAMS: Cpar=0.299pF Ind=1uH
X1 port1 port2 Model1A PARAMS:
+ R1=200
+ R2=0.07
+ C= {Cpar}
+ K1=0.00005
+ K2=0.189
+ K3= {Ind}
+ K4=0.00344
+ K5=0.00000978
+ L=0
+ Is=0
+ a=0
+ L_Z0=0
+ L_EL=0
+ L_F0=0E6
+ PkZ=2709.73396
.ends 1812FS-102_freq

*======================================================================
* SPICE Model generated by Coilcraft
* Coilcraft Part Number : 1812FS-102
* Inductance = 1uH
*======================================================================
* Model Parameters:
*   Valid Frequency Range = 0.1MHz-400MHz
*   Ambient Temperature = 25 degC
*   Inductor Impedance Model
*   Use model for Time Domain simulations
*======================================================================
.subckt 1812FS-102_imp port1 port2 PARAMS: Cpar=0.29pF Ind=1uH
X1 port1 port2 Model1D PARAMS:
+ R1=200
+ R2=0.07
+ C= {Cpar}
+ K1=0.00005
+ K2=0.189
+ K3= {Ind}
+ K4=0.00344
+ K5=0.00000978
+ L=0
+ Is=0
+ a=0
+ L_Z0=0
+ L_EL=0
+ L_F0=0E6
+ PkZ=2709.73396
.ends 1812FS-102_imp

*======================================================================
* SPICE Model generated by Coilcraft
* Coilcraft Part Number : 1812FS-122
* Inductance = 1.2uH
*======================================================================
* Model Parameters:
*   Valid Frequency Range = 0.1MHz-400MHz
*   Ambient Temperature = 25 degC
*   Inductor Frequency Model
*   Use model for Frequency Domain simulations
*======================================================================
.subckt 1812FS-122_freq port1 port2 PARAMS: Cpar=0.273pF Ind=1.2uH
X1 port1 port2 Model1A PARAMS:
+ R1=315
+ R2=0.11
+ C= {Cpar}
+ K1=0.00001
+ K2=0.239
+ K3= {Ind}
+ K4=0.00241
+ K5=0.00000978
+ L=0
+ Is=0
+ a=0
+ L_Z0=0
+ L_EL=0
+ L_F0=0E6
+ PkZ=3112.27625
.ends 1812FS-122_freq

*======================================================================
* SPICE Model generated by Coilcraft
* Coilcraft Part Number : 1812FS-122
* Inductance = 1.2uH
*======================================================================
* Model Parameters:
*   Valid Frequency Range = 0.1MHz-400MHz
*   Ambient Temperature = 25 degC
*   Inductor Impedance Model
*   Use model for Time Domain simulations
*======================================================================
.subckt 1812FS-122_imp port1 port2 PARAMS: Cpar=0.27pF Ind=1.2uH
X1 port1 port2 Model1D PARAMS:
+ R1=315
+ R2=0.11
+ C= {Cpar}
+ K1=0.00001
+ K2=0.239
+ K3= {Ind}
+ K4=0.00241
+ K5=0.00000978
+ L=0
+ Is=0
+ a=0
+ L_Z0=0
+ L_EL=0
+ L_F0=0E6
+ PkZ=3112.27625
.ends 1812FS-122_imp

*======================================================================
* SPICE Model generated by Coilcraft
* Coilcraft Part Number : 1812FS-152
* Inductance = 1.5uH
*======================================================================
* Model Parameters:
*   Valid Frequency Range = 0.1MHz-300MHz
*   Ambient Temperature = 25 degC
*   Inductor Frequency Model
*   Use model for Frequency Domain simulations
*======================================================================
.subckt 1812FS-152_freq port1 port2 PARAMS: Cpar=0.444pF Ind=1.5uH
X1 port1 port2 Model1A PARAMS:
+ R1=285
+ R2=0.105
+ C= {Cpar}
+ K1=0.00005
+ K2=0.409
+ K3= {Ind}
+ K4=0.01
+ K5=0.00000978
+ L=0
+ Is=0
+ a=0
+ L_Z0=0
+ L_EL=0
+ L_F0=0E6
+ PkZ=3845.31405
.ends 1812FS-152_freq

*======================================================================
* SPICE Model generated by Coilcraft
* Coilcraft Part Number : 1812FS-152
* Inductance = 1.5uH
*======================================================================
* Model Parameters:
*   Valid Frequency Range = 0.1MHz-300MHz
*   Ambient Temperature = 25 degC
*   Inductor Impedance Model
*   Use model for Time Domain simulations
*======================================================================
.subckt 1812FS-152_imp port1 port2 PARAMS: Cpar=0.42pF Ind=1.5uH
X1 port1 port2 Model1D PARAMS:
+ R1=285
+ R2=0.105
+ C= {Cpar}
+ K1=0.00005
+ K2=0.409
+ K3= {Ind}
+ K4=0.01
+ K5=0.00000978
+ L=0
+ Is=0
+ a=0
+ L_Z0=0
+ L_EL=0
+ L_F0=0E6
+ PkZ=3845.31405
.ends 1812FS-152_imp

*======================================================================
* SPICE Model generated by Coilcraft
* Coilcraft Part Number : 1812FS-222
* Inductance = 2.2uH
*======================================================================
* Model Parameters:
*   Valid Frequency Range = 0.1MHz-300MHz
*   Ambient Temperature = 25 degC
*   Inductor Frequency Model
*   Use model for Frequency Domain simulations
*======================================================================
.subckt 1812FS-222_freq port1 port2 PARAMS: Cpar=0.326pF Ind=2.2uH
X1 port1 port2 Model1A PARAMS:
+ R1=420
+ R2=0.12
+ C= {Cpar}
+ K1=0.00005
+ K2=0.576
+ K3= {Ind}
+ K4=0.015
+ K5=0.00000978
+ L=0
+ Is=0
+ a=0
+ L_Z0=0
+ L_EL=0
+ L_F0=0E6
+ PkZ=5284.52183
.ends 1812FS-222_freq

*======================================================================
* SPICE Model generated by Coilcraft
* Coilcraft Part Number : 1812FS-222
* Inductance = 2.2uH
*======================================================================
* Model Parameters:
*   Valid Frequency Range = 0.1MHz-300MHz
*   Ambient Temperature = 25 degC
*   Inductor Impedance Model
*   Use model for Time Domain simulations
*======================================================================
.subckt 1812FS-222_imp port1 port2 PARAMS: Cpar=0.31pF Ind=2.2uH
X1 port1 port2 Model1D PARAMS:
+ R1=420
+ R2=0.12
+ C= {Cpar}
+ K1=0.00005
+ K2=0.576
+ K3= {Ind}
+ K4=0.015
+ K5=0.00000978
+ L=0
+ Is=0
+ a=0
+ L_Z0=0
+ L_EL=0
+ L_F0=0E6
+ PkZ=5284.52183
.ends 1812FS-222_imp

*======================================================================
* SPICE Model generated by Coilcraft
* Coilcraft Part Number : 1812FS-242
* Inductance = 2.4uH
*======================================================================
* Model Parameters:
*   Valid Frequency Range = 0.1MHz-300MHz
*   Ambient Temperature = 25 degC
*   Inductor Frequency Model
*   Use model for Frequency Domain simulations
*======================================================================
.subckt 1812FS-242_freq port1 port2 PARAMS: Cpar=0.332pF Ind=2.4uH
X1 port1 port2 Model1A PARAMS:
+ R1=440
+ R2=0.175
+ C= {Cpar}
+ K1=0.000086
+ K2=0.7
+ K3= {Ind}
+ K4=0.00982
+ K5=0.00000978
+ L=0
+ Is=0
+ a=0
+ L_Z0=0
+ L_EL=0
+ L_F0=0E6
+ PkZ=5962.10885
.ends 1812FS-242_freq

*======================================================================
* SPICE Model generated by Coilcraft
* Coilcraft Part Number : 1812FS-242
* Inductance = 2.4uH
*======================================================================
* Model Parameters:
*   Valid Frequency Range = 0.1MHz-300MHz
*   Ambient Temperature = 25 degC
*   Inductor Impedance Model
*   Use model for Time Domain simulations
*======================================================================
.subckt 1812FS-242_imp port1 port2 PARAMS: Cpar=0.32pF Ind=2.4uH
X1 port1 port2 Model1D PARAMS:
+ R1=440
+ R2=0.175
+ C= {Cpar}
+ K1=0.000086
+ K2=0.7
+ K3= {Ind}
+ K4=0.00982
+ K5=0.00000978
+ L=0
+ Is=0
+ a=0
+ L_Z0=0
+ L_EL=0
+ L_F0=0E6
+ PkZ=5962.10885
.ends 1812FS-242_imp

*======================================================================
* SPICE Model generated by Coilcraft
* Coilcraft Part Number : 1812FS-272
* Inductance = 2.7uH
*======================================================================
* Model Parameters:
*   Valid Frequency Range = 0.1MHz-200MHz
*   Ambient Temperature = 25 degC
*   Inductor Frequency Model
*   Use model for Frequency Domain simulations
*======================================================================
.subckt 1812FS-272_freq port1 port2 PARAMS: Cpar=0.37pF Ind=2.7uH
X1 port1 port2 Model1A PARAMS:
+ R1=360
+ R2=0.2
+ C= {Cpar}
+ K1=0.00005
+ K2=0.761
+ K3= {Ind}
+ K4=0.017
+ K5=0.00000985
+ L=0
+ Is=0
+ a=0
+ L_Z0=0
+ L_EL=0
+ L_F0=0E6
+ PkZ=6496.1528
.ends 1812FS-272_freq

*======================================================================
* SPICE Model generated by Coilcraft
* Coilcraft Part Number : 1812FS-272
* Inductance = 2.7uH
*======================================================================
* Model Parameters:
*   Valid Frequency Range = 0.1MHz-200MHz
*   Ambient Temperature = 25 degC
*   Inductor Impedance Model
*   Use model for Time Domain simulations
*======================================================================
.subckt 1812FS-272_imp port1 port2 PARAMS: Cpar=0.35pF Ind=2.7uH
X1 port1 port2 Model1D PARAMS:
+ R1=360
+ R2=0.2
+ C= {Cpar}
+ K1=0.00005
+ K2=0.761
+ K3= {Ind}
+ K4=0.017
+ K5=0.00000985
+ L=0
+ Is=0
+ a=0
+ L_Z0=0
+ L_EL=0
+ L_F0=0E6
+ PkZ=6496.1528
.ends 1812FS-272_imp

*======================================================================
* SPICE Model generated by Coilcraft
* Coilcraft Part Number : 1812FS-332
* Inductance = 3.3uH
*======================================================================
* Model Parameters:
*   Valid Frequency Range = 0.1MHz-200MHz
*   Ambient Temperature = 25 degC
*   Inductor Frequency Model
*   Use model for Frequency Domain simulations
*======================================================================
.subckt 1812FS-332_freq port1 port2 PARAMS: Cpar=0.366pF Ind=3.3uH
X1 port1 port2 Model1A PARAMS:
+ R1=340
+ R2=0.185
+ C= {Cpar}
+ K1=0.000001
+ K2=1.02
+ K3= {Ind}
+ K4=0.027
+ K5=0.00000994
+ L=0
+ Is=0
+ a=0
+ L_Z0=0
+ L_EL=0
+ L_F0=0E6
+ PkZ=8342.00657
.ends 1812FS-332_freq

*======================================================================
* SPICE Model generated by Coilcraft
* Coilcraft Part Number : 1812FS-332
* Inductance = 3.3uH
*======================================================================
* Model Parameters:
*   Valid Frequency Range = 0.1MHz-200MHz
*   Ambient Temperature = 25 degC
*   Inductor Impedance Model
*   Use model for Time Domain simulations
*======================================================================
.subckt 1812FS-332_imp port1 port2 PARAMS: Cpar=0.34pF Ind=3.3uH
X1 port1 port2 Model1D PARAMS:
+ R1=340
+ R2=0.185
+ C= {Cpar}
+ K1=0.000001
+ K2=1.02
+ K3= {Ind}
+ K4=0.027
+ K5=0.00000994
+ L=0
+ Is=0
+ a=0
+ L_Z0=0
+ L_EL=0
+ L_F0=0E6
+ PkZ=8342.00657
.ends 1812FS-332_imp

*======================================================================
* SPICE Model generated by Coilcraft
* Coilcraft Part Number : 1812FS-392
* Inductance = 3.9uH
*======================================================================
* Model Parameters:
*   Valid Frequency Range = 0.1MHz-200MHz
*   Ambient Temperature = 25 degC
*   Inductor Frequency Model
*   Use model for Frequency Domain simulations
*======================================================================
.subckt 1812FS-392_freq port1 port2 PARAMS: Cpar=0.365pF Ind=3.9uH
X1 port1 port2 Model1A PARAMS:
+ R1=420
+ R2=0.195
+ C= {Cpar}
+ K1=0.00003
+ K2=1.46
+ K3= {Ind}
+ K4=0.047
+ K5=0.00000994
+ L=0
+ Is=0
+ a=0
+ L_Z0=0
+ L_EL=0
+ L_F0=0E6
+ PkZ=9954.87264
.ends 1812FS-392_freq

*======================================================================
* SPICE Model generated by Coilcraft
* Coilcraft Part Number : 1812FS-392
* Inductance = 3.9uH
*======================================================================
* Model Parameters:
*   Valid Frequency Range = 0.1MHz-200MHz
*   Ambient Temperature = 25 degC
*   Inductor Impedance Model
*   Use model for Time Domain simulations
*======================================================================
.subckt 1812FS-392_imp port1 port2 PARAMS: Cpar=0.33pF Ind=3.9uH
X1 port1 port2 Model1D PARAMS:
+ R1=420
+ R2=0.195
+ C= {Cpar}
+ K1=0.00003
+ K2=1.46
+ K3= {Ind}
+ K4=0.047
+ K5=0.00000994
+ L=0
+ Is=0
+ a=0
+ L_Z0=0
+ L_EL=0
+ L_F0=0E6
+ PkZ=9954.87264
.ends 1812FS-392_imp

*======================================================================
* SPICE Model generated by Coilcraft
* Coilcraft Part Number : 1812FS-472
* Inductance = 4.7uH
*======================================================================
* Model Parameters:
*   Valid Frequency Range = 0.1MHz-200MHz
*   Ambient Temperature = 25 degC
*   Inductor Frequency Model
*   Use model for Frequency Domain simulations
*======================================================================
.subckt 1812FS-472_freq port1 port2 PARAMS: Cpar=0.401pF Ind=4.7uH
X1 port1 port2 Model1A PARAMS:
+ R1=360
+ R2=0.15
+ C= {Cpar}
+ K1=0.000133
+ K2=1.7
+ K3= {Ind}
+ K4=0.066
+ K5=0.00000994
+ L=0
+ Is=0
+ a=0
+ L_Z0=0
+ L_EL=0
+ L_F0=0E6
+ PkZ=11476.747
.ends 1812FS-472_freq

*======================================================================
* SPICE Model generated by Coilcraft
* Coilcraft Part Number : 1812FS-472
* Inductance = 4.7uH
*======================================================================
* Model Parameters:
*   Valid Frequency Range = 0.1MHz-200MHz
*   Ambient Temperature = 25 degC
*   Inductor Impedance Model
*   Use model for Time Domain simulations
*======================================================================
.subckt 1812FS-472_imp port1 port2 PARAMS: Cpar=0.36pF Ind=4.7uH
X1 port1 port2 Model1D PARAMS:
+ R1=360
+ R2=0.15
+ C= {Cpar}
+ K1=0.000133
+ K2=1.7
+ K3= {Ind}
+ K4=0.066
+ K5=0.00000994
+ L=0
+ Is=0
+ a=0
+ L_Z0=0
+ L_EL=0
+ L_F0=0E6
+ PkZ=11476.747
.ends 1812FS-472_imp

*======================================================================
* SPICE Model generated by Coilcraft
* Coilcraft Part Number : 1812FS-562
* Inductance = 5.6uH
*======================================================================
* Model Parameters:
*   Valid Frequency Range = 0.1MHz-200MHz
*   Ambient Temperature = 25 degC
*   Inductor Frequency Model
*   Use model for Frequency Domain simulations
*======================================================================
.subckt 1812FS-562_freq port1 port2 PARAMS: Cpar=0.379pF Ind=5.6uH
X1 port1 port2 Model1A PARAMS:
+ R1=360
+ R2=0.33
+ C= {Cpar}
+ K1=0.000001
+ K2=2.21
+ K3= {Ind}
+ K4=0.08
+ K5=0.00000994
+ L=0
+ Is=0
+ a=0
+ L_Z0=0
+ L_EL=0
+ L_F0=0E6
+ PkZ=14485.816
.ends 1812FS-562_freq

*======================================================================
* SPICE Model generated by Coilcraft
* Coilcraft Part Number : 1812FS-562
* Inductance = 5.6uH
*======================================================================
* Model Parameters:
*   Valid Frequency Range = 0.1MHz-200MHz
*   Ambient Temperature = 25 degC
*   Inductor Impedance Model
*   Use model for Time Domain simulations
*======================================================================
.subckt 1812FS-562_imp port1 port2 PARAMS: Cpar=0.34pF Ind=5.6uH
X1 port1 port2 Model1D PARAMS:
+ R1=360
+ R2=0.33
+ C= {Cpar}
+ K1=0.000001
+ K2=2.21
+ K3= {Ind}
+ K4=0.08
+ K5=0.00000994
+ L=0
+ Is=0
+ a=0
+ L_Z0=0
+ L_EL=0
+ L_F0=0E6
+ PkZ=14485.816
.ends 1812FS-562_imp

*======================================================================
* SPICE Model generated by Coilcraft
* Coilcraft Part Number : 1812FS-682
* Inductance = 6.8uH
*======================================================================
* Model Parameters:
*   Valid Frequency Range = 0.1MHz-200MHz
*   Ambient Temperature = 25 degC
*   Inductor Frequency Model
*   Use model for Frequency Domain simulations
*======================================================================
.subckt 1812FS-682_freq port1 port2 PARAMS: Cpar=0.412pF Ind=6.8uH
X1 port1 port2 Model1A PARAMS:
+ R1=260
+ R2=0.35
+ C= {Cpar}
+ K1=0.000001
+ K2=2.49
+ K3= {Ind}
+ K4=0.1
+ K5=0.00000994
+ L=0
+ Is=0
+ a=0
+ L_Z0=0
+ L_EL=0
+ L_F0=0E6
+ PkZ=17372.7674
.ends 1812FS-682_freq

*======================================================================
* SPICE Model generated by Coilcraft
* Coilcraft Part Number : 1812FS-682
* Inductance = 6.8uH
*======================================================================
* Model Parameters:
*   Valid Frequency Range = 0.1MHz-200MHz
*   Ambient Temperature = 25 degC
*   Inductor Impedance Model
*   Use model for Time Domain simulations
*======================================================================
.subckt 1812FS-682_imp port1 port2 PARAMS: Cpar=0.37pF Ind=6.8uH
X1 port1 port2 Model1D PARAMS:
+ R1=260
+ R2=0.35
+ C= {Cpar}
+ K1=0.000001
+ K2=2.49
+ K3= {Ind}
+ K4=0.1
+ K5=0.00000994
+ L=0
+ Is=0
+ a=0
+ L_Z0=0
+ L_EL=0
+ L_F0=0E6
+ PkZ=17372.7674
.ends 1812FS-682_imp

*======================================================================
* SPICE Model generated by Coilcraft
* Coilcraft Part Number : 1812FS-103
* Inductance = 10uH
*======================================================================
* Model Parameters:
*   Valid Frequency Range = 0.1MHz-200MHz
*   Ambient Temperature = 25 degC
*   Inductor Frequency Model
*   Use model for Frequency Domain simulations
*======================================================================
.subckt 1812FS-103_freq port1 port2 PARAMS: Cpar=0.344pF Ind=10uH
X1 port1 port2 Model1A PARAMS:
+ R1=160
+ R2=0.55
+ C= {Cpar}
+ K1=0.000001
+ K2=4.05
+ K3= {Ind}
+ K4=0.07
+ K5=0.0000099
+ L=0
+ Is=0
+ a=0
+ L_Z0=0
+ L_EL=0
+ L_F0=0E6
+ PkZ=31146.5745
.ends 1812FS-103_freq

*======================================================================
* SPICE Model generated by Coilcraft
* Coilcraft Part Number : 1812FS-103
* Inductance = 10uH
*======================================================================
* Model Parameters:
*   Valid Frequency Range = 0.1MHz-200MHz
*   Ambient Temperature = 25 degC
*   Inductor Impedance Model
*   Use model for Time Domain simulations
*======================================================================
.subckt 1812FS-103_imp port1 port2 PARAMS: Cpar=0.33pF Ind=10uH
X1 port1 port2 Model1D PARAMS:
+ R1=160
+ R2=0.55
+ C= {Cpar}
+ K1=0.000001
+ K2=4.05
+ K3= {Ind}
+ K4=0.07
+ K5=0.0000099
+ L=0
+ Is=0
+ a=0
+ L_Z0=0
+ L_EL=0
+ L_F0=0E6
+ PkZ=31146.5745
.ends 1812FS-103_imp

*======================================================================
* SPICE Model generated by Coilcraft
* Coilcraft Part Number : 1812FS-153
* Inductance = 15uH
*======================================================================
* Model Parameters:
*   Valid Frequency Range = 0.1MHz-100MHz
*   Ambient Temperature = 25 degC
*   Inductor Frequency Model
*   Use model for Frequency Domain simulations
*======================================================================
.subckt 1812FS-153_freq port1 port2 PARAMS: Cpar=0.323pF Ind=15uH
X1 port1 port2 Model1A PARAMS:
+ R1=60
+ R2=0.75
+ C= {Cpar}
+ K1=0.000001
+ K2=5
+ K3= {Ind}
+ K4=0.1
+ K5=0.0000099
+ L=0
+ Is=0
+ a=0
+ L_Z0=0
+ L_EL=0
+ L_F0=0E6
+ PkZ=40635.2603
.ends 1812FS-153_freq

*======================================================================
* SPICE Model generated by Coilcraft
* Coilcraft Part Number : 1812FS-153
* Inductance = 15uH
*======================================================================
* Model Parameters:
*   Valid Frequency Range = 0.1MHz-100MHz
*   Ambient Temperature = 25 degC
*   Inductor Impedance Model
*   Use model for Time Domain simulations
*======================================================================
.subckt 1812FS-153_imp port1 port2 PARAMS: Cpar=0.31pF Ind=15uH
X1 port1 port2 Model1D PARAMS:
+ R1=60
+ R2=0.75
+ C= {Cpar}
+ K1=0.000001
+ K2=5
+ K3= {Ind}
+ K4=0.1
+ K5=0.0000099
+ L=0
+ Is=0
+ a=0
+ L_Z0=0
+ L_EL=0
+ L_F0=0E6
+ PkZ=40635.2603
.ends 1812FS-153_imp

*======================================================================
* SPICE Model generated by Coilcraft
* Coilcraft Part Number : 1812FS-223
* Inductance = 22uH
*======================================================================
* Model Parameters:
*   Valid Frequency Range = 0.1MHz-40MHz
*   Ambient Temperature = 25 degC
*   Inductor Frequency Model
*   Use model for Frequency Domain simulations
*======================================================================
.subckt 1812FS-223_freq port1 port2 PARAMS: Cpar=3.89pF Ind=22uH
X1 port1 port2 Model1A PARAMS:
+ R1=70
+ R2=0.85
+ C= {Cpar}
+ K1=0.000006
+ K2=10
+ K3= {Ind}
+ K4=0.08
+ K5=0.00001
+ L=0
+ Is=0
+ a=0
+ L_Z0=0
+ L_EL=0
+ L_F0=0E6
+ PkZ=27319.9567
.ends 1812FS-223_freq

*======================================================================
* SPICE Model generated by Coilcraft
* Coilcraft Part Number : 1812FS-223
* Inductance = 22uH
*======================================================================
* Model Parameters:
*   Valid Frequency Range = 0.1MHz-40MHz
*   Ambient Temperature = 25 degC
*   Inductor Impedance Model
*   Use model for Time Domain simulations
*======================================================================
.subckt 1812FS-223_imp port1 port2 PARAMS: Cpar=3.82pF Ind=22uH
X1 port1 port2 Model1D PARAMS:
+ R1=70
+ R2=0.85
+ C= {Cpar}
+ K1=0.000006
+ K2=10
+ K3= {Ind}
+ K4=0.08
+ K5=0.00001
+ L=0
+ Is=0
+ a=0
+ L_Z0=0
+ L_EL=0
+ L_F0=0E6
+ PkZ=27319.9567
.ends 1812FS-223_imp

*======================================================================
* SPICE Model generated by Coilcraft
* Coilcraft Part Number : 1812FS-333
* Inductance = 33uH
*======================================================================
* Model Parameters:
*   Valid Frequency Range = 0.1MHz-30MHz
*   Ambient Temperature = 25 degC
*   Inductor Frequency Model
*   Use model for Frequency Domain simulations
*======================================================================
.subckt 1812FS-333_freq port1 port2 PARAMS: Cpar=5.06pF Ind=33uH
X1 port1 port2 Model1A PARAMS:
+ R1=70
+ R2=1.1
+ C= {Cpar}
+ K1=0.000001
+ K2=14
+ K3= {Ind}
+ K4=0.05
+ K5=0.0000103
+ L=0
+ Is=0
+ a=0
+ L_Z0=0
+ L_EL=0
+ L_F0=0E6
+ PkZ=32132.6879
.ends 1812FS-333_freq

*======================================================================
* SPICE Model generated by Coilcraft
* Coilcraft Part Number : 1812FS-333
* Inductance = 33uH
*======================================================================
* Model Parameters:
*   Valid Frequency Range = 0.1MHz-30MHz
*   Ambient Temperature = 25 degC
*   Inductor Impedance Model
*   Use model for Time Domain simulations
*======================================================================
.subckt 1812FS-333_imp port1 port2 PARAMS: Cpar=5.02pF Ind=33uH
X1 port1 port2 Model1D PARAMS:
+ R1=70
+ R2=1.1
+ C= {Cpar}
+ K1=0.000001
+ K2=14
+ K3= {Ind}
+ K4=0.05
+ K5=0.0000103
+ L=0
+ Is=0
+ a=0
+ L_Z0=0
+ L_EL=0
+ L_F0=0E6
+ PkZ=32132.6879
.ends 1812FS-333_imp

*======================================================================
* SPICE Model generated by Coilcraft
* Coilcraft Part Number : 1812FS-393
* Inductance = 39uH
*======================================================================
* Model Parameters:
*   Valid Frequency Range = 0.1MHz-20MHz
*   Ambient Temperature = 25 degC
*   Inductor Frequency Model
*   Use model for Frequency Domain simulations
*======================================================================
.subckt 1812FS-393_freq port1 port2 PARAMS: Cpar=5.41pF Ind=39uH
X1 port1 port2 Model1A PARAMS:
+ R1=77
+ R2=1.1
+ C= {Cpar}
+ K1=0.00013
+ K2=16
+ K3= {Ind}
+ K4=0.07
+ K5=0.0000103
+ L=0
+ Is=0
+ a=0
+ L_Z0=0
+ L_EL=0
+ L_F0=0E6
+ PkZ=33708.5844
.ends 1812FS-393_freq

*======================================================================
* SPICE Model generated by Coilcraft
* Coilcraft Part Number : 1812FS-393
* Inductance = 39uH
*======================================================================
* Model Parameters:
*   Valid Frequency Range = 0.1MHz-20MHz
*   Ambient Temperature = 25 degC
*   Inductor Impedance Model
*   Use model for Time Domain simulations
*======================================================================
.subckt 1812FS-393_imp port1 port2 PARAMS: Cpar=5.36pF Ind=39uH
X1 port1 port2 Model1D PARAMS:
+ R1=77
+ R2=1.1
+ C= {Cpar}
+ K1=0.00013
+ K2=16
+ K3= {Ind}
+ K4=0.07
+ K5=0.0000103
+ L=0
+ Is=0
+ a=0
+ L_Z0=0
+ L_EL=0
+ L_F0=0E6
+ PkZ=33708.5844
.ends 1812FS-393_imp

*======================================================================
* SPICE Model generated by Coilcraft
* Coilcraft Part Number : 1812FS-473
* Inductance = 47uH
*======================================================================
* Model Parameters:
*   Valid Frequency Range = 0.1MHz-20MHz
*   Ambient Temperature = 25 degC
*   Inductor Frequency Model
*   Use model for Frequency Domain simulations
*======================================================================
.subckt 1812FS-473_freq port1 port2 PARAMS: Cpar=6.53pF Ind=47uH
X1 port1 port2 Model1A PARAMS:
+ R1=115
+ R2=1.2
+ C= {Cpar}
+ K1=0.00018
+ K2=26
+ K3= {Ind}
+ K4=0.14
+ K5=0.0000103
+ L=0
+ Is=0
+ a=0
+ L_Z0=0
+ L_EL=0
+ L_F0=0E6
+ PkZ=34520.8778
.ends 1812FS-473_freq

*======================================================================
* SPICE Model generated by Coilcraft
* Coilcraft Part Number : 1812FS-473
* Inductance = 47uH
*======================================================================
* Model Parameters:
*   Valid Frequency Range = 0.1MHz-20MHz
*   Ambient Temperature = 25 degC
*   Inductor Impedance Model
*   Use model for Time Domain simulations
*======================================================================
.subckt 1812FS-473_imp port1 port2 PARAMS: Cpar=6.44pF Ind=47uH
X1 port1 port2 Model1D PARAMS:
+ R1=115
+ R2=1.2
+ C= {Cpar}
+ K1=0.00018
+ K2=26
+ K3= {Ind}
+ K4=0.14
+ K5=0.0000103
+ L=0
+ Is=0
+ a=0
+ L_Z0=0
+ L_EL=0
+ L_F0=0E6
+ PkZ=34520.8778
.ends 1812FS-473_imp

*======================================================================
* SPICE Model generated by Coilcraft
* Coilcraft Part Number : 1812FS-683
* Inductance = 68uH
*======================================================================
* Model Parameters:
*   Valid Frequency Range = 0.1MHz-30MHz
*   Ambient Temperature = 25 degC
*   Inductor Frequency Model
*   Use model for Frequency Domain simulations
*======================================================================
.subckt 1812FS-683_freq port1 port2 PARAMS: Cpar=0.73pF Ind=68uH
X1 port1 port2 Model1A PARAMS:
+ R1=390
+ R2=1.8
+ C= {Cpar}
+ K1=0.0000001
+ K2=25
+ K3= {Ind}
+ K4=0.146
+ K5=0.00000985
+ L=0
+ Is=0
+ a=0
+ L_Z0=0
+ L_EL=0
+ L_F0=0E6
+ PkZ=79230.7628
.ends 1812FS-683_freq

*======================================================================
* SPICE Model generated by Coilcraft
* Coilcraft Part Number : 1812FS-683
* Inductance = 68uH
*======================================================================
* Model Parameters:
*   Valid Frequency Range = 0.1MHz-30MHz
*   Ambient Temperature = 25 degC
*   Inductor Impedance Model
*   Use model for Time Domain simulations
*======================================================================
.subckt 1812FS-683_imp port1 port2 PARAMS: Cpar=0.72pF Ind=68uH
X1 port1 port2 Model1D PARAMS:
+ R1=390
+ R2=1.8
+ C= {Cpar}
+ K1=0.0000001
+ K2=25
+ K3= {Ind}
+ K4=0.146
+ K5=0.00000985
+ L=0
+ Is=0
+ a=0
+ L_Z0=0
+ L_EL=0
+ L_F0=0E6
+ PkZ=79230.7628
.ends 1812FS-683_imp

*======================================================================
* SPICE Model generated by Coilcraft
* Coilcraft Part Number : 1812FS-104
* Inductance = 100uH
*======================================================================
* Model Parameters:
*   Valid Frequency Range = 0.1MHz-9MHz
*   Ambient Temperature = 25 degC
*   Inductor Frequency Model
*   Use model for Frequency Domain simulations
*======================================================================
.subckt 1812FS-104_freq port1 port2 PARAMS: Cpar=10pF Ind=100uH
X1 port1 port2 Model1A PARAMS:
+ R1=90
+ R2=2.5
+ C= {Cpar}
+ K1=0.000001
+ K2=28
+ K3= {Ind}
+ K4=0.2
+ K5=0.0000119
+ L=0
+ Is=0
+ a=0
+ L_Z0=0
+ L_EL=0
+ L_F0=0E6
+ PkZ=40074.015
.ends 1812FS-104_freq

*======================================================================
* SPICE Model generated by Coilcraft
* Coilcraft Part Number : 1812FS-104
* Inductance = 100uH
*======================================================================
* Model Parameters:
*   Valid Frequency Range = 0.1MHz-9MHz
*   Ambient Temperature = 25 degC
*   Inductor Impedance Model
*   Use model for Time Domain simulations
*======================================================================
.subckt 1812FS-104_imp port1 port2 PARAMS: Cpar=9.92pF Ind=100uH
X1 port1 port2 Model1D PARAMS:
+ R1=90
+ R2=2.5
+ C= {Cpar}
+ K1=0.000001
+ K2=28
+ K3= {Ind}
+ K4=0.2
+ K5=0.0000119
+ L=0
+ Is=0
+ a=0
+ L_Z0=0
+ L_EL=0
+ L_F0=0E6
+ PkZ=40074.015
.ends 1812FS-104_imp

*======================================================================
* SPICE Model generated by Coilcraft
* Coilcraft Part Number : 1812FS-154