*======================================================================
* SPICE Model generated by Coilcraft
* Coilcraft Part Number : 1812PS-102M
* Inductance = 1uH
*======================================================================
* Model Parameters:
*   Valid Frequency Range = 0.1MHz-300MHz
*   Ambient Temperature = 25 degC
*   Inductor Frequency Model
*   Use model for Frequency Domain simulations
*======================================================================
.subckt 1812PS-102M_freq port1 port2 PARAMS: Cpar=137pF Ind=1uH
X1 port1 port2 Model1B PARAMS:
+ R1=608
+ R2=0.054
+ C= {Cpar}
+ K1=0.00000076
+ K2=2.29
+ K3= {Ind}
+ K4=0
+ K5=0
+ L=0
+ Is=0
+ a=0
+ L_Z0=0
+ L_EL=0
+ L_F0=0E6
+ PkZ=86.1559034
.ends 1812PS-102M_freq

*======================================================================
* SPICE Model generated by Coilcraft
* Coilcraft Part Number : 1812PS-102M
* Inductance = 1uH
*======================================================================
* Model Parameters:
*   Valid Frequency Range = 0.1MHz-300MHz
*   Ambient Temperature = 25 degC
*   Inductor Impedance Model
*   Use model for Time Domain simulations
*======================================================================
.subckt 1812PS-102M_imp port1 port2 PARAMS: Cpar=137.00pF Ind=1uH
X1 port1 port2 Model1D PARAMS:
+ R1=608
+ R2=0.054
+ C= {Cpar}
+ K1=0.00000076
+ K2=2.29
+ K3= {Ind}
+ K4=0
+ K5=0
+ L=0
+ Is=0
+ a=0
+ L_Z0=0
+ L_EL=0
+ L_F0=0E6
+ PkZ=86.1559034
.ends 1812PS-102M_imp

*======================================================================
* SPICE Model generated by Coilcraft
* Coilcraft Part Number : 1812PS-152M
* Inductance = 1.5uH
*======================================================================
* Model Parameters:
*   Valid Frequency Range = 0.1MHz-60MHz
*   Ambient Temperature = 25 degC
*   Inductor Frequency Model
*   Use model for Frequency Domain simulations
*======================================================================
.subckt 1812PS-152M_freq port1 port2 PARAMS: Cpar=93pF Ind=1.5uH
X1 port1 port2 Model1B PARAMS:
+ R1=840
+ R2=0.054
+ C= {Cpar}
+ K1=3.75E-07
+ K2=1.25
+ K3= {Ind}
+ K4=0
+ K5=0
+ L=0
+ Is=0
+ a=0
+ L_Z0=0
+ L_EL=0
+ L_F0=0E6
+ PkZ=127.868955
.ends 1812PS-152M_freq

*======================================================================
* SPICE Model generated by Coilcraft
* Coilcraft Part Number : 1812PS-152M
* Inductance = 1.5uH
*======================================================================
* Model Parameters:
*   Valid Frequency Range = 0.1MHz-60MHz
*   Ambient Temperature = 25 degC
*   Inductor Impedance Model
*   Use model for Time Domain simulations
*======================================================================
.subckt 1812PS-152M_imp port1 port2 PARAMS: Cpar=93.00pF Ind=1.5uH
X1 port1 port2 Model1D PARAMS:
+ R1=840
+ R2=0.054
+ C= {Cpar}
+ K1=3.75E-07
+ K2=1.25
+ K3= {Ind}
+ K4=0
+ K5=0
+ L=0
+ Is=0
+ a=0
+ L_Z0=0
+ L_EL=0
+ L_F0=0E6
+ PkZ=127.868955
.ends 1812PS-152M_imp

*======================================================================
* SPICE Model generated by Coilcraft
* Coilcraft Part Number : 1812PS-222M
* Inductance = 2.2uH
*======================================================================
* Model Parameters:
*   Valid Frequency Range = 0.1MHz-60MHz
*   Ambient Temperature = 25 degC
*   Inductor Frequency Model
*   Use model for Frequency Domain simulations
*======================================================================
.subckt 1812PS-222M_freq port1 port2 PARAMS: Cpar=93pF Ind=2.2uH
X1 port1 port2 Model1B PARAMS:
+ R1=1600
+ R2=0.072
+ C= {Cpar}
+ K1=0.00000075
+ K2=1.89
+ K3= {Ind}
+ K4=0
+ K5=0
+ L=0
+ Is=0
+ a=0
+ L_Z0=0
+ L_EL=0
+ L_F0=0E6
+ PkZ=154.114976
.ends 1812PS-222M_freq

*======================================================================
* SPICE Model generated by Coilcraft
* Coilcraft Part Number : 1812PS-222M
* Inductance = 2.2uH
*======================================================================
* Model Parameters:
*   Valid Frequency Range = 0.1MHz-60MHz
*   Ambient Temperature = 25 degC
*   Inductor Impedance Model
*   Use model for Time Domain simulations
*======================================================================
.subckt 1812PS-222M_imp port1 port2 PARAMS: Cpar=93.00pF Ind=2.2uH
X1 port1 port2 Model1D PARAMS:
+ R1=1600
+ R2=0.072
+ C= {Cpar}
+ K1=0.00000075
+ K2=1.89
+ K3= {Ind}
+ K4=0
+ K5=0
+ L=0
+ Is=0
+ a=0
+ L_Z0=0
+ L_EL=0
+ L_F0=0E6
+ PkZ=154.114976
.ends 1812PS-222M_imp

*======================================================================
* SPICE Model generated by Coilcraft
* Coilcraft Part Number : 1812PS-272M
* Inductance = 2.7uH
*======================================================================
* Model Parameters:
*   Valid Frequency Range = 0.1MHz-55MHz
*   Ambient Temperature = 25 degC
*   Inductor Frequency Model
*   Use model for Frequency Domain simulations
*======================================================================
.subckt 1812PS-272M_freq port1 port2 PARAMS: Cpar=79pF Ind=2.7uH
X1 port1 port2 Model1B PARAMS:
+ R1=1540
+ R2=0.072
+ C= {Cpar}
+ K1=0.00000075
+ K2=1.89
+ K3= {Ind}
+ K4=0
+ K5=0
+ L=0
+ Is=0
+ a=0
+ L_Z0=0
+ L_EL=0
+ L_F0=0E6
+ PkZ=185.467672
.ends 1812PS-272M_freq

*======================================================================
* SPICE Model generated by Coilcraft
* Coilcraft Part Number : 1812PS-272M
* Inductance = 2.7uH
*======================================================================
* Model Parameters:
*   Valid Frequency Range = 0.1MHz-55MHz
*   Ambient Temperature = 25 degC
*   Inductor Impedance Model
*   Use model for Time Domain simulations
*======================================================================
.subckt 1812PS-272M_imp port1 port2 PARAMS: Cpar=79.00pF Ind=2.7uH
X1 port1 port2 Model1D PARAMS:
+ R1=1540
+ R2=0.072
+ C= {Cpar}
+ K1=0.00000075
+ K2=1.89
+ K3= {Ind}
+ K4=0
+ K5=0
+ L=0
+ Is=0
+ a=0
+ L_Z0=0
+ L_EL=0
+ L_F0=0E6
+ PkZ=185.467672
.ends 1812PS-272M_imp

*======================================================================
* SPICE Model generated by Coilcraft
* Coilcraft Part Number : 1812PS-332M
* Inductance = 3.3uH
*======================================================================
* Model Parameters:
*   Valid Frequency Range = 0.1MHz-50MHz
*   Ambient Temperature = 25 degC
*   Inductor Frequency Model
*   Use model for Frequency Domain simulations
*======================================================================
.subckt 1812PS-332M_freq port1 port2 PARAMS: Cpar=107pF Ind=3.3uH
X1 port1 port2 Model1B PARAMS:
+ R1=1690
+ R2=0.12
+ C= {Cpar}
+ K1=8.53E-07
+ K2=3.56
+ K3= {Ind}
+ K4=0
+ K5=0
+ L=0
+ Is=0
+ a=0
+ L_Z0=0
+ L_EL=0
+ L_F0=0E6
+ PkZ=176.240528
.ends 1812PS-332M_freq

*======================================================================
* SPICE Model generated by Coilcraft
* Coilcraft Part Number : 1812PS-332M
* Inductance = 3.3uH
*======================================================================
* Model Parameters:
*   Valid Frequency Range = 0.1MHz-50MHz
*   Ambient Temperature = 25 degC
*   Inductor Impedance Model
*   Use model for Time Domain simulations
*======================================================================
.subckt 1812PS-332M_imp port1 port2 PARAMS: Cpar=107.00pF Ind=3.3uH
X1 port1 port2 Model1D PARAMS:
+ R1=1690
+ R2=0.12
+ C= {Cpar}
+ K1=8.53E-07
+ K2=3.56
+ K3= {Ind}
+ K4=0
+ K5=0
+ L=0
+ Is=0
+ a=0
+ L_Z0=0
+ L_EL=0
+ L_F0=0E6
+ PkZ=176.240528
.ends 1812PS-332M_imp

*======================================================================
* SPICE Model generated by Coilcraft
* Coilcraft Part Number : 1812PS-392M
* Inductance = 3.9uH
*======================================================================
* Model Parameters:
*   Valid Frequency Range = 0.1MHz-50MHz
*   Ambient Temperature = 25 degC
*   Inductor Frequency Model
*   Use model for Frequency Domain simulations
*======================================================================
.subckt 1812PS-392M_freq port1 port2 PARAMS: Cpar=103pF Ind=3.9uH
X1 port1 port2 Model1B PARAMS:
+ R1=2630
+ R2=0.104
+ C= {Cpar}
+ K1=0.000023
+ K2=4.21
+ K3= {Ind}
+ K4=0
+ K5=0
+ L=0
+ Is=0
+ a=0
+ L_Z0=0
+ L_EL=0
+ L_F0=0E6
+ PkZ=194.859757
.ends 1812PS-392M_freq

*======================================================================
* SPICE Model generated by Coilcraft
* Coilcraft Part Number : 1812PS-392M
* Inductance = 3.9uH
*======================================================================
* Model Parameters:
*   Valid Frequency Range = 0.1MHz-50MHz
*   Ambient Temperature = 25 degC
*   Inductor Impedance Model
*   Use model for Time Domain simulations
*======================================================================
.subckt 1812PS-392M_imp port1 port2 PARAMS: Cpar=103.00pF Ind=3.9uH
X1 port1 port2 Model1D PARAMS:
+ R1=2630
+ R2=0.104
+ C= {Cpar}
+ K1=0.000023
+ K2=4.21
+ K3= {Ind}
+ K4=0
+ K5=0
+ L=0
+ Is=0
+ a=0
+ L_Z0=0
+ L_EL=0
+ L_F0=0E6
+ PkZ=194.859757
.ends 1812PS-392M_imp

*======================================================================
* SPICE Model generated by Coilcraft
* Coilcraft Part Number : 1812PS-472M
* Inductance = 4.7uH
*======================================================================
* Model Parameters:
*   Valid Frequency Range = 0.1MHz-50MHz
*   Ambient Temperature = 25 degC
*   Inductor Frequency Model
*   Use model for Frequency Domain simulations
*======================================================================
.subckt 1812PS-472M_freq port1 port2 PARAMS: Cpar=37.5pF Ind=4.7uH
X1 port1 port2 Model1B PARAMS:
+ R1=3320
+ R2=0.095
+ C= {Cpar}
+ K1=0.000045
+ K2=3.31
+ K3= {Ind}
+ K4=0
+ K5=0
+ L=0
+ Is=0
+ a=0
+ L_Z0=0
+ L_EL=0
+ L_F0=0E6
+ PkZ=354.686266
.ends 1812PS-472M_freq

*======================================================================
* SPICE Model generated by Coilcraft
* Coilcraft Part Number : 1812PS-472M
* Inductance = 4.7uH
*======================================================================
* Model Parameters:
*   Valid Frequency Range = 0.1MHz-50MHz
*   Ambient Temperature = 25 degC
*   Inductor Impedance Model
*   Use model for Time Domain simulations
*======================================================================
.subckt 1812PS-472M_imp port1 port2 PARAMS: Cpar=37.50pF Ind=4.7uH
X1 port1 port2 Model1D PARAMS:
+ R1=3320
+ R2=0.095
+ C= {Cpar}
+ K1=0.000045
+ K2=3.31
+ K3= {Ind}
+ K4=0
+ K5=0
+ L=0
+ Is=0
+ a=0
+ L_Z0=0
+ L_EL=0
+ L_F0=0E6
+ PkZ=354.686266
.ends 1812PS-472M_imp

*======================================================================
* SPICE Model generated by Coilcraft
* Coilcraft Part Number : 1812PS-562M
* Inductance = 5.6uH
*======================================================================
* Model Parameters:
*   Valid Frequency Range = 0.1MHz-45MHz
*   Ambient Temperature = 25 degC
*   Inductor Frequency Model
*   Use model for Frequency Domain simulations
*======================================================================
.subckt 1812PS-562M_freq port1 port2 PARAMS: Cpar=152pF Ind=5.6uH
X1 port1 port2 Model1B PARAMS:
+ R1=3160
+ R2=0.097
+ C= {Cpar}
+ K1=0.0000568
+ K2=7.35
+ K3= {Ind}
+ K4=0
+ K5=0
+ L=0
+ Is=0
+ a=0
+ L_Z0=0
+ L_EL=0
+ L_F0=0E6
+ PkZ=192.151789
.ends 1812PS-562M_freq

*======================================================================
* SPICE Model generated by Coilcraft
* Coilcraft Part Number : 1812PS-562M
* Inductance = 5.6uH
*======================================================================
* Model Parameters:
*   Valid Frequency Range = 0.1MHz-45MHz
*   Ambient Temperature = 25 degC
*   Inductor Impedance Model
*   Use model for Time Domain simulations
*======================================================================
.subckt 1812PS-562M_imp port1 port2 PARAMS: Cpar=152.00pF Ind=5.6uH
X1 port1 port2 Model1D PARAMS:
+ R1=3160
+ R2=0.097
+ C= {Cpar}
+ K1=0.0000568
+ K2=7.35
+ K3= {Ind}
+ K4=0
+ K5=0
+ L=0
+ Is=0
+ a=0
+ L_Z0=0
+ L_EL=0
+ L_F0=0E6
+ PkZ=192.151789
.ends 1812PS-562M_imp

*======================================================================
* SPICE Model generated by Coilcraft
* Coilcraft Part Number : 1812PS-682M
* Inductance = 6.8uH
*======================================================================
* Model Parameters:
*   Valid Frequency Range = 0.1MHz-40MHz
*   Ambient Temperature = 25 degC
*   Inductor Frequency Model
*   Use model for Frequency Domain simulations
*======================================================================
.subckt 1812PS-682M_freq port1 port2 PARAMS: Cpar=206pF Ind=6.8uH
X1 port1 port2 Model1B PARAMS:
+ R1=3910
+ R2=0.124
+ C= {Cpar}
+ K1=0.0000148
+ K2=8.05
+ K3= {Ind}
+ K4=0
+ K5=0
+ L=0
+ Is=0
+ a=0
+ L_Z0=0
+ L_EL=0
+ L_F0=0E6
+ PkZ=181.783876
.ends 1812PS-682M_freq

*======================================================================
* SPICE Model generated by Coilcraft
* Coilcraft Part Number : 1812PS-682M
* Inductance = 6.8uH
*======================================================================
* Model Parameters:
*   Valid Frequency Range = 0.1MHz-40MHz
*   Ambient Temperature = 25 degC
*   Inductor Impedance Model
*   Use model for Time Domain simulations
*======================================================================
.subckt 1812PS-682M_imp port1 port2 PARAMS: Cpar=206.00pF Ind=6.8uH
X1 port1 port2 Model1D PARAMS:
+ R1=3910
+ R2=0.124
+ C= {Cpar}
+ K1=0.0000148
+ K2=8.05
+ K3= {Ind}
+ K4=0
+ K5=0
+ L=0
+ Is=0
+ a=0
+ L_Z0=0
+ L_EL=0
+ L_F0=0E6
+ PkZ=181.783876
.ends 1812PS-682M_imp

*======================================================================
* SPICE Model generated by Coilcraft
* Coilcraft Part Number : 1812PS-103M
* Inductance = 10uH
*======================================================================
* Model Parameters:
*   Valid Frequency Range = 0.1MHz-40MHz
*   Ambient Temperature = 25 degC
*   Inductor Frequency Model
*   Use model for Frequency Domain simulations
*======================================================================
.subckt 1812PS-103M_freq port1 port2 PARAMS: Cpar=273pF Ind=10uH
X1 port1 port2 Model1B PARAMS:
+ R1=6080
+ R2=0.154
+ C= {Cpar}
+ K1=0.0000296
+ K2=32.2
+ K3= {Ind}
+ K4=0
+ K5=0
+ L=0
+ Is=0
+ a=0
+ L_Z0=0
+ L_EL=0
+ L_F0=0E6
+ PkZ=191.466593
.ends 1812PS-103M_freq

*======================================================================
* SPICE Model generated by Coilcraft
* Coilcraft Part Number : 1812PS-103M
* Inductance = 10uH
*======================================================================
* Model Parameters:
*   Valid Frequency Range = 0.1MHz-40MHz
*   Ambient Temperature = 25 degC
*   Inductor Impedance Model
*   Use model for Time Domain simulations
*======================================================================
.subckt 1812PS-103M_imp port1 port2 PARAMS: Cpar=273.00pF Ind=10uH
X1 port1 port2 Model1D PARAMS:
+ R1=6080
+ R2=0.154
+ C= {Cpar}
+ K1=0.0000296
+ K2=32.2
+ K3= {Ind}
+ K4=0
+ K5=0
+ L=0
+ Is=0
+ a=0
+ L_Z0=0
+ L_EL=0
+ L_F0=0E6
+ PkZ=191.466593
.ends 1812PS-103M_imp

*======================================================================
* SPICE Model generated by Coilcraft
* Coilcraft Part Number : 1812PS-153M
* Inductance = 15uH
*======================================================================
* Model Parameters:
*   Valid Frequency Range = 0.1MHz-35MHz
*   Ambient Temperature = 25 degC
*   Inductor Frequency Model
*   Use model for Frequency Domain simulations
*======================================================================
.subckt 1812PS-153M_freq port1 port2 PARAMS: Cpar=137pF Ind=15uH
X1 port1 port2 Model1B PARAMS:
+ R1=8370
+ R2=0.326
+ C= {Cpar}
+ K1=0.0000001
+ K2=33.7
+ K3= {Ind}
+ K4=0
+ K5=0
+ L=0
+ Is=0
+ a=0
+ L_Z0=0
+ L_EL=0
+ L_F0=0E6
+ PkZ=331.09137
.ends 1812PS-153M_freq

*======================================================================
* SPICE Model generated by Coilcraft
* Coilcraft Part Number : 1812PS-153M
* Inductance = 15uH
*======================================================================
* Model Parameters:
*   Valid Frequency Range = 0.1MHz-35MHz
*   Ambient Temperature = 25 degC
*   Inductor Impedance Model
*   Use model for Time Domain simulations
*======================================================================
.subckt 1812PS-153M_imp port1 port2 PARAMS: Cpar=137.00pF Ind=15uH
X1 port1 port2 Model1D PARAMS:
+ R1=8370
+ R2=0.326
+ C= {Cpar}
+ K1=0.0000001
+ K2=33.7
+ K3= {Ind}
+ K4=0
+ K5=0
+ L=0
+ Is=0
+ a=0
+ L_Z0=0
+ L_EL=0
+ L_F0=0E6
+ PkZ=331.09137
.ends 1812PS-153M_imp

*======================================================================
* SPICE Model generated by Coilcraft
* Coilcraft Part Number : 1812PS-223M
* Inductance = 22uH
*======================================================================
* Model Parameters:
*   Valid Frequency Range = 0.1MHz-25MHz
*   Ambient Temperature = 25 degC
*   Inductor Frequency Model
*   Use model for Frequency Domain simulations
*======================================================================
.subckt 1812PS-223M_freq port1 port2 PARAMS: Cpar=0.615pF Ind=22uH
X1 port1 port2 Model1B PARAMS:
+ R1=7160
+ R2=0.314
+ C= {Cpar}
+ K1=3.98E-07
+ K2=11.2
+ K3= {Ind}
+ K4=0
+ K5=0
+ L=0
+ Is=0
+ a=0
+ L_Z0=0
+ L_EL=0
+ L_F0=0E6
+ PkZ=7277.46484
.ends 1812PS-223M_freq

*======================================================================
* SPICE Model generated by Coilcraft
* Coilcraft Part Number : 1812PS-223M
* Inductance = 22uH
*======================================================================
* Model Parameters:
*   Valid Frequency Range = 0.1MHz-25MHz
*   Ambient Temperature = 25 degC
*   Inductor Impedance Model
*   Use model for Time Domain simulations
*======================================================================
.subckt 1812PS-223M_imp port1 port2 PARAMS: Cpar=0.62pF Ind=22uH
X1 port1 port2 Model1D PARAMS:
+ R1=7160
+ R2=0.314
+ C= {Cpar}
+ K1=3.98E-07
+ K2=11.2
+ K3= {Ind}
+ K4=0
+ K5=0
+ L=0
+ Is=0
+ a=0
+ L_Z0=0
+ L_EL=0
+ L_F0=0E6
+ PkZ=7277.46484
.ends 1812PS-223M_imp

*======================================================================
* SPICE Model generated by Coilcraft
* Coilcraft Part Number : 1812PS-333M
* Inductance = 33uH
*======================================================================
* Model Parameters:
*   Valid Frequency Range = 0.1MHz-20MHz
*   Ambient Temperature = 25 degC
*   Inductor Frequency Model
*   Use model for Frequency Domain simulations
*======================================================================
.subckt 1812PS-333M_freq port1 port2 PARAMS: Cpar=0.903pF Ind=33uH
X1 port1 port2 Model1B PARAMS:
+ R1=4160
+ R2=0.418
+ C= {Cpar}
+ K1=2.38E-07
+ K2=14.6
+ K3= {Ind}
+ K4=0
+ K5=0
+ L=0
+ Is=0
+ a=0
+ L_Z0=0
+ L_EL=0
+ L_F0=0E6
+ PkZ=9572.28149
.ends 1812PS-333M_freq

*======================================================================
* SPICE Model generated by Coilcraft
* Coilcraft Part Number : 1812PS-333M
* Inductance = 33uH
*======================================================================
* Model Parameters:
*   Valid Frequency Range = 0.1MHz-20MHz
*   Ambient Temperature = 25 degC
*   Inductor Impedance Model
*   Use model for Time Domain simulations
*======================================================================
.subckt 1812PS-333M_imp port1 port2 PARAMS: Cpar=0.90pF Ind=33uH
X1 port1 port2 Model1D PARAMS:
+ R1=4160
+ R2=0.418
+ C= {Cpar}
+ K1=2.38E-07
+ K2=14.6
+ K3= {Ind}
+ K4=0
+ K5=0
+ L=0
+ Is=0
+ a=0
+ L_Z0=0
+ L_EL=0
+ L_F0=0E6
+ PkZ=9572.28149
.ends 1812PS-333M_imp

*======================================================================
* SPICE Model generated by Coilcraft
* Coilcraft Part Number : 1812PS-393M
* Inductance = 39uH
*======================================================================
* Model Parameters:
*   Valid Frequency Range = 0.1MHz-20MHz
*   Ambient Temperature = 25 degC
*   Inductor Frequency Model
*   Use model for Frequency Domain simulations
*======================================================================
.subckt 1812PS-393M_freq port1 port2 PARAMS: Cpar=0.763pF Ind=39uH
X1 port1 port2 Model1B PARAMS:
+ R1=4640
+ R2=0.622
+ C= {Cpar}
+ K1=2.38E-07
+ K2=18.6
+ K3= {Ind}
+ K4=0
+ K5=0
+ L=0
+ Is=0
+ a=0
+ L_Z0=0
+ L_EL=0
+ L_F0=0E6
+ PkZ=11811.2161
.ends 1812PS-393M_freq

*======================================================================
* SPICE Model generated by Coilcraft
* Coilcraft Part Number : 1812PS-393M
* Inductance = 39uH
*======================================================================
* Model Parameters:
*   Valid Frequency Range = 0.1MHz-20MHz
*   Ambient Temperature = 25 degC
*   Inductor Impedance Model
*   Use model for Time Domain simulations
*======================================================================
.subckt 1812PS-393M_imp port1 port2 PARAMS: Cpar=0.76pF Ind=39uH
X1 port1 port2 Model1D PARAMS:
+ R1=4640
+ R2=0.622
+ C= {Cpar}
+ K1=2.38E-07
+ K2=18.6
+ K3= {Ind}
+ K4=0
+ K5=0
+ L=0
+ Is=0
+ a=0
+ L_Z0=0
+ L_EL=0
+ L_F0=0E6
+ PkZ=11811.2161
.ends 1812PS-393M_imp

*======================================================================
* SPICE Model generated by Coilcraft
* Coilcraft Part Number : 1812PS-473M
* Inductance = 47uH
*======================================================================
* Model Parameters:
*   Valid Frequency Range = 0.1MHz-18MHz
*   Ambient Temperature = 25 degC
*   Inductor Frequency Model
*   Use model for Frequency Domain simulations
*======================================================================
.subckt 1812PS-473M_freq port1 port2 PARAMS: Cpar=0.833pF Ind=47uH
X1 port1 port2 Model1B PARAMS:
+ R1=5110
+ R2=0.883
+ C= {Cpar}
+ K1=0.000151
+ K2=31.8
+ K3= {Ind}
+ K4=0
+ K5=0
+ L=0
+ Is=0
+ a=0
+ L_Z0=0
+ L_EL=0
+ L_F0=0E6
+ PkZ=12481.1858
.ends 1812PS-473M_freq

*======================================================================
* SPICE Model generated by Coilcraft
* Coilcraft Part Number : 1812PS-473M
* Inductance = 47uH
*======================================================================
* Model Parameters:
*   Valid Frequency Range = 0.1MHz-18MHz
*   Ambient Temperature = 25 degC
*   Inductor Impedance Model
*   Use model for Time Domain simulations
*======================================================================
.subckt 1812PS-473M_imp port1 port2 PARAMS: Cpar=0.83pF Ind=47uH
X1 port1 port2 Model1D PARAMS:
+ R1=5110
+ R2=0.883
+ C= {Cpar}
+ K1=0.000151
+ K2=31.8
+ K3= {Ind}
+ K4=0
+ K5=0
+ L=0
+ Is=0
+ a=0
+ L_Z0=0
+ L_EL=0
+ L_F0=0E6
+ PkZ=12481.1858
.ends 1812PS-473M_imp

*======================================================================
* SPICE Model generated by Coilcraft
* Coilcraft Part Number : 1812PS-683M
* Inductance = 68uH
*======================================================================
* Model Parameters:
*   Valid Frequency Range = 0.1MHz-13MHz
*   Ambient Temperature = 25 degC
*   Inductor Frequency Model
*   Use model for Frequency Domain simulations
*======================================================================
.subckt 1812PS-683M_freq port1 port2 PARAMS: Cpar=1.47pF Ind=68uH
X1 port1 port2 Model1B PARAMS:
+ R1=2090
+ R2=1.19
+ C= {Cpar}
+ K1=0.000035
+ K2=37.9
+ K3= {Ind}
+ K4=0
+ K5=0
+ L=0
+ Is=0
+ a=0
+ L_Z0=0
+ L_EL=0
+ L_F0=0E6
+ PkZ=20182.6958
.ends 1812PS-683M_freq

*======================================================================
* SPICE Model generated by Coilcraft
* Coilcraft Part Number : 1812PS-683M
* Inductance = 68uH
*======================================================================
* Model Parameters:
*   Valid Frequency Range = 0.1MHz-13MHz
*   Ambient Temperature = 25 degC
*   Inductor Impedance Model
*   Use model for Time Domain simulations
*======================================================================
.subckt 1812PS-683M_imp port1 port2 PARAMS: Cpar=1.47pF Ind=68uH
X1 port1 port2 Model1D PARAMS:
+ R1=2090
+ R2=1.19
+ C= {Cpar}
+ K1=0.000035
+ K2=37.9
+ K3= {Ind}
+ K4=0
+ K5=0
+ L=0
+ Is=0
+ a=0
+ L_Z0=0
+ L_EL=0
+ L_F0=0E6
+ PkZ=20182.6958
.ends 1812PS-683M_imp

*======================================================================
* SPICE Model generated by Coilcraft
* Coilcraft Part Number : 1812PS-823M
* Inductance = 82uH
*======================================================================
* Model Parameters:
*   Valid Frequency Range = 0.1MHz-11MHz
*   Ambient Temperature = 25 degC
*   Inductor Frequency Model
*   Use model for Frequency Domain simulations
*======================================================================
.subckt 1812PS-823M_freq port1 port2 PARAMS: Cpar=1.38pF Ind=82uH
X1 port1 port2 Model1B PARAMS:
+ R1=4010
+ R2=1.24
+ C= {Cpar}
+ K1=0.000035
+ K2=59.9
+ K3= {Ind}
+ K4=0
+ K5=0
+ L=0
+ Is=0
+ a=0
+ L_Z0=0
+ L_EL=0
+ L_F0=0E6
+ PkZ=15692.0225
.ends 1812PS-823M_freq

*======================================================================
* SPICE Model generated by Coilcraft
* Coilcraft Part Number : 1812PS-823M
* Inductance = 82uH
*======================================================================
* Model Parameters:
*   Valid Frequency Range = 0.1MHz-11MHz
*   Ambient Temperature = 25 degC
*   Inductor Impedance Model
*   Use model for Time Domain simulations
*======================================================================
.subckt 1812PS-823M_imp port1 port2 PARAMS: Cpar=1.38pF Ind=82uH
X1 port1 port2 Model1D PARAMS:
+ R1=4010
+ R2=1.24
+ C= {Cpar}
+ K1=0.000035
+ K2=59.9
+ K3= {Ind}
+ K4=0
+ K5=0
+ L=0
+ Is=0
+ a=0
+ L_Z0=0
+ L_EL=0
+ L_F0=0E6
+ PkZ=15692.0225
.ends 1812PS-823M_imp

*======================================================================
* SPICE Model generated by Coilcraft
* Coilcraft Part Number : 1812PS-104M
* Inductance = 100uH
*======================================================================
* Model Parameters:
*   Valid Frequency Range = 0.1MHz-11MHz
*   Ambient Temperature = 25 degC
*   Inductor Frequency Model
*   Use model for Frequency Domain simulations
*======================================================================
.subckt 1812PS-104M_freq port1 port2 PARAMS: Cpar=1.4pF Ind=100uH
X1 port1 port2 Model1B PARAMS:
+ R1=2390
+ R2=1.39
+ C= {Cpar}
+ K1=0.0000175
+ K2=71.1
+ K3= {Ind}
+ K4=0
+ K5=0
+ L=0
+ Is=0
+ a=0
+ L_Z0=0
+ L_EL=0
+ L_F0=0E6
+ PkZ=27853.7327
.ends 1812PS-104M_freq

*======================================================================
* SPICE Model generated by Coilcraft
* Coilcraft Part Number : 1812PS-104M
* Inductance = 100uH
*======================================================================
* Model Parameters:
*   Valid Frequency Range = 0.1MHz-11MHz
*   Ambient Temperature = 25 degC
*   Inductor Impedance Model
*   Use model for Time Domain simulations
*======================================================================
.subckt 1812PS-104M_imp port1 port2 PARAMS: Cpar=1.40pF Ind=100uH
X1 port1 port2 Model1D PARAMS:
+ R1=2390
+ R2=1.39
+ C= {Cpar}
+ K1=0.0000175
+ K2=71.1
+ K3= {Ind}
+ K4=0
+ K5=0
+ L=0
+ Is=0
+ a=0
+ L_Z0=0
+ L_EL=0
+ L_F0=0E6
+ PkZ=27853.7327
.ends 1812PS-104M_imp

*======================================================================
* SPICE Model generated by Coilcraft
* Coilcraft Part Number : 1812PS-124M
* Inductance = 120uH
*======================================================================
* Model Parameters:
*   Valid Frequency Range = 0.1MHz-9MHz
*   Ambient Temperature = 25 degC
*   Inductor Frequency Model
*   Use model for Frequency Domain simulations
*======================================================================
.subckt 1812PS-124M_freq port1 port2 PARAMS: Cpar=1.74pF Ind=120uH
X1 port1 port2 Model1B PARAMS:
+ R1=2660
+ R2=1.39
+ C= {Cpar}
+ K1=0.0000149
+ K2=76.9
+ K3= {Ind}
+ K4=0
+ K5=0
+ L=0
+ Is=0
+ a=0
+ L_Z0=0
+ L_EL=0
+ L_F0=0E6
+ PkZ=24703.9119
.ends 1812PS-124M_freq

*======================================================================
* SPICE Model generated by Coilcraft
* Coilcraft Part Number : 1812PS-124M
* Inductance = 120uH
*======================================================================
* Model Parameters:
*   Valid Frequency Range = 0.1MHz-9MHz
*   Ambient Temperature = 25 degC
*   Inductor Impedance Model
*   Use model for Time Domain simulations
*======================================================================
.subckt 1812PS-124M_imp port1 port2 PARAMS: Cpar=1.74pF Ind=120uH
X1 port1 port2 Model1D PARAMS:
+ R1=2660
+ R2=1.39
+ C= {Cpar}
+ K1=0.0000149
+ K2=76.9
+ K3= {Ind}
+ K4=0
+ K5=0
+ L=0
+ Is=0
+ a=0
+ L_Z0=0
+ L_EL=0
+ L_F0=0E6
+ PkZ=24703.9119
.ends 1812PS-124M_imp

*======================================================================
* SPICE Model generated by Coilcraft
* Coilcraft Part Number : 1812PS-154M
* Inductance = 150uH
*======================================================================
* Model Parameters:
*   Valid Frequency Range = 0.1MHz-8MHz
*   Ambient Temperature = 25 degC
*   Inductor Frequency Model