*======================================================================
* SPICE Model generated by Coilcraft
* Coilcraft Part Number : DO1605T-102
* Inductance = 0.96uH
*======================================================================
* Model Parameters:
*   Valid Frequency Range = 0.1MHz-20MHz
*   Ambient Temperature = 25 degC
*   Inductor Frequency Model
*   Use model for Frequency Domain simulations
*======================================================================
.subckt DO1605T-102_freq port1 port2 PARAMS: Cpar=0.001pF Ind=0.96uH
X1 port1 port2 Model1A PARAMS:
+ R1=100000
+ R2=0.036
+ C= {Cpar}
+ K1=0.0000284
+ K2=0.295
+ K3= {Ind}
+ K4=0.013
+ K5=0.00000134
+ L=0
+ Is=0
+ a=0
+ L_Z0=0
+ L_EL=0
+ L_F0=0E6
+ PkZ=15738.2782
.ends DO1605T-102_freq

*======================================================================
* SPICE Model generated by Coilcraft
* Coilcraft Part Number : DO1605T-102
* Inductance = 0.96uH
*======================================================================
* Model Parameters:
*   Valid Frequency Range = 0.1MHz-20MHz
*   Ambient Temperature = 25 degC
*   Inductor Impedance Model
*   Use model for Time Domain simulations
*======================================================================
.subckt DO1605T-102_imp port1 port2 PARAMS: Cpar=0.00pF Ind=0.96uH
X1 port1 port2 Model1D PARAMS:
+ R1=100000
+ R2=0.036
+ C= {Cpar}
+ K1=0.0000284
+ K2=0.295
+ K3= {Ind}
+ K4=0.013
+ K5=0.00000134
+ L=0
+ Is=0
+ a=0
+ L_Z0=0
+ L_EL=0
+ L_F0=0E6
+ PkZ=15738.2782
.ends DO1605T-102_imp

*======================================================================
* SPICE Model generated by Coilcraft
* Coilcraft Part Number : DO1605T-152
* Inductance = 1.46uH
*======================================================================
* Model Parameters:
*   Valid Frequency Range = 0.1MHz-20MHz
*   Ambient Temperature = 25 degC
*   Inductor Frequency Model
*   Use model for Frequency Domain simulations
*======================================================================
.subckt DO1605T-152_freq port1 port2 PARAMS: Cpar=0.001pF Ind=1.46uH
X1 port1 port2 Model1A PARAMS:
+ R1=100000
+ R2=0.058
+ C= {Cpar}
+ K1=0.0000355
+ K2=0.497
+ K3= {Ind}
+ K4=0.0191
+ K5=5.27E-07
+ L=0
+ Is=0
+ a=0
+ L_Z0=0
+ L_EL=0
+ L_F0=0E6
+ PkZ=21653.1874
.ends DO1605T-152_freq

*======================================================================
* SPICE Model generated by Coilcraft
* Coilcraft Part Number : DO1605T-152
* Inductance = 1.46uH
*======================================================================
* Model Parameters:
*   Valid Frequency Range = 0.1MHz-20MHz
*   Ambient Temperature = 25 degC
*   Inductor Impedance Model
*   Use model for Time Domain simulations
*======================================================================
.subckt DO1605T-152_imp port1 port2 PARAMS: Cpar=0.00pF Ind=1.46uH
X1 port1 port2 Model1D PARAMS:
+ R1=100000
+ R2=0.058
+ C= {Cpar}
+ K1=0.0000355
+ K2=0.497
+ K3= {Ind}
+ K4=0.0191
+ K5=5.27E-07
+ L=0
+ Is=0
+ a=0
+ L_Z0=0
+ L_EL=0
+ L_F0=0E6
+ PkZ=21653.1874
.ends DO1605T-152_imp

*======================================================================
* SPICE Model generated by Coilcraft
* Coilcraft Part Number : DO1605T-222
* Inductance = 2.1uH
*======================================================================
* Model Parameters:
*   Valid Frequency Range = 0.1MHz-20MHz
*   Ambient Temperature = 25 degC
*   Inductor Frequency Model
*   Use model for Frequency Domain simulations
*======================================================================
.subckt DO1605T-222_freq port1 port2 PARAMS: Cpar=0.001pF Ind=2.1uH
X1 port1 port2 Model1A PARAMS:
+ R1=100000
+ R2=0.045
+ C= {Cpar}
+ K1=0.0000608
+ K2=0.574
+ K3= {Ind}
+ K4=0.025
+ K5=0.00000106
+ L=0
+ Is=0
+ a=0
+ L_Z0=0
+ L_EL=0
+ L_F0=0E6
+ PkZ=23843.4093
.ends DO1605T-222_freq

*======================================================================
* SPICE Model generated by Coilcraft
* Coilcraft Part Number : DO1605T-222
* Inductance = 2.1uH
*======================================================================
* Model Parameters:
*   Valid Frequency Range = 0.1MHz-20MHz
*   Ambient Temperature = 25 degC
*   Inductor Impedance Model
*   Use model for Time Domain simulations
*======================================================================
.subckt DO1605T-222_imp port1 port2 PARAMS: Cpar=0.00pF Ind=2.1uH
X1 port1 port2 Model1D PARAMS:
+ R1=100000
+ R2=0.045
+ C= {Cpar}
+ K1=0.0000608
+ K2=0.574
+ K3= {Ind}
+ K4=0.025
+ K5=0.00000106
+ L=0
+ Is=0
+ a=0
+ L_Z0=0
+ L_EL=0
+ L_F0=0E6
+ PkZ=23843.4093
.ends DO1605T-222_imp

*======================================================================
* SPICE Model generated by Coilcraft
* Coilcraft Part Number : DO1605T-332
* Inductance = 3.24uH
*======================================================================
* Model Parameters:
*   Valid Frequency Range = 0.1MHz-15MHz
*   Ambient Temperature = 25 degC
*   Inductor Frequency Model
*   Use model for Frequency Domain simulations
*======================================================================
.subckt DO1605T-332_freq port1 port2 PARAMS: Cpar=0.001pF Ind=3.24uH
X1 port1 port2 Model1A PARAMS:
+ R1=100000
+ R2=0.085
+ C= {Cpar}
+ K1=0.0000463
+ K2=0.833
+ K3= {Ind}
+ K4=0.0317
+ K5=0.00000111
+ L=0
+ Is=0
+ a=0
+ L_Z0=0
+ L_EL=0
+ L_F0=0E6
+ PkZ=30212.0101
.ends DO1605T-332_freq

*======================================================================
* SPICE Model generated by Coilcraft
* Coilcraft Part Number : DO1605T-332
* Inductance = 3.24uH
*======================================================================
* Model Parameters:
*   Valid Frequency Range = 0.1MHz-15MHz
*   Ambient Temperature = 25 degC
*   Inductor Impedance Model
*   Use model for Time Domain simulations
*======================================================================
.subckt DO1605T-332_imp port1 port2 PARAMS: Cpar=0.00pF Ind=3.24uH
X1 port1 port2 Model1D PARAMS:
+ R1=100000
+ R2=0.085
+ C= {Cpar}
+ K1=0.0000463
+ K2=0.833
+ K3= {Ind}
+ K4=0.0317
+ K5=0.00000111
+ L=0
+ Is=0
+ a=0
+ L_Z0=0
+ L_EL=0
+ L_F0=0E6
+ PkZ=30212.0101
.ends DO1605T-332_imp

*======================================================================
* SPICE Model generated by Coilcraft
* Coilcraft Part Number : DO1605T-472
* Inductance = 4.5uH
*======================================================================
* Model Parameters:
*   Valid Frequency Range = 0.1MHz-15MHz
*   Ambient Temperature = 25 degC
*   Inductor Frequency Model
*   Use model for Frequency Domain simulations
*======================================================================
.subckt DO1605T-472_freq port1 port2 PARAMS: Cpar=0.001pF Ind=4.5uH
X1 port1 port2 Model1A PARAMS:
+ R1=100000
+ R2=0.137
+ C= {Cpar}
+ K1=0.0000559
+ K2=1
+ K3= {Ind}
+ K4=0.0633
+ K5=0.00000111
+ L=0
+ Is=0
+ a=0
+ L_Z0=0
+ L_EL=0
+ L_F0=0E6
+ PkZ=34078.283
.ends DO1605T-472_freq

*======================================================================
* SPICE Model generated by Coilcraft
* Coilcraft Part Number : DO1605T-472
* Inductance = 4.5uH
*======================================================================
* Model Parameters:
*   Valid Frequency Range = 0.1MHz-15MHz
*   Ambient Temperature = 25 degC
*   Inductor Impedance Model
*   Use model for Time Domain simulations
*======================================================================
.subckt DO1605T-472_imp port1 port2 PARAMS: Cpar=0.00pF Ind=4.5uH
X1 port1 port2 Model1D PARAMS:
+ R1=100000
+ R2=0.137
+ C= {Cpar}
+ K1=0.0000559
+ K2=1
+ K3= {Ind}
+ K4=0.0633
+ K5=0.00000111
+ L=0
+ Is=0
+ a=0
+ L_Z0=0
+ L_EL=0
+ L_F0=0E6
+ PkZ=34078.283
.ends DO1605T-472_imp

*======================================================================
* SPICE Model generated by Coilcraft
* Coilcraft Part Number : DO1605T-682
* Inductance = 6.7uH
*======================================================================
* Model Parameters:
*   Valid Frequency Range = 0.1MHz-15MHz
*   Ambient Temperature = 25 degC
*   Inductor Frequency Model
*   Use model for Frequency Domain simulations
*======================================================================
.subckt DO1605T-682_freq port1 port2 PARAMS: Cpar=0.001pF Ind=6.7uH
X1 port1 port2 Model1A PARAMS:
+ R1=100000
+ R2=0.175
+ C= {Cpar}
+ K1=0.0000285
+ K2=1.4
+ K3= {Ind}
+ K4=0.0685
+ K5=0.00000111
+ L=0
+ Is=0
+ a=0
+ L_Z0=0
+ L_EL=0
+ L_F0=0E6
+ PkZ=42703.1691
.ends DO1605T-682_freq

*======================================================================
* SPICE Model generated by Coilcraft
* Coilcraft Part Number : DO1605T-682
* Inductance = 6.7uH
*======================================================================
* Model Parameters:
*   Valid Frequency Range = 0.1MHz-15MHz
*   Ambient Temperature = 25 degC
*   Inductor Impedance Model
*   Use model for Time Domain simulations
*======================================================================
.subckt DO1605T-682_imp port1 port2 PARAMS: Cpar=0.00pF Ind=6.7uH
X1 port1 port2 Model1D PARAMS:
+ R1=100000
+ R2=0.175
+ C= {Cpar}
+ K1=0.0000285
+ K2=1.4
+ K3= {Ind}
+ K4=0.0685
+ K5=0.00000111
+ L=0
+ Is=0
+ a=0
+ L_Z0=0
+ L_EL=0
+ L_F0=0E6
+ PkZ=42703.1691
.ends DO1605T-682_imp

*======================================================================
* SPICE Model generated by Coilcraft
* Coilcraft Part Number : DO1605T-103
* Inductance = 9.65uH
*======================================================================
* Model Parameters:
*   Valid Frequency Range = 0.1MHz-15MHz
*   Ambient Temperature = 25 degC
*   Inductor Frequency Model
*   Use model for Frequency Domain simulations
*======================================================================
.subckt DO1605T-103_freq port1 port2 PARAMS: Cpar=0.001pF Ind=9.65uH
X1 port1 port2 Model1A PARAMS:
+ R1=55600
+ R2=0.225
+ C= {Cpar}
+ K1=0.000028
+ K2=1.66
+ K3= {Ind}
+ K4=0.137
+ K5=0.0000007
+ L=0
+ Is=0
+ a=0
+ L_Z0=0
+ L_EL=0
+ L_F0=0E6
+ PkZ=51270.7624
.ends DO1605T-103_freq

*======================================================================
* SPICE Model generated by Coilcraft
* Coilcraft Part Number : DO1605T-103
* Inductance = 9.65uH
*======================================================================
* Model Parameters:
*   Valid Frequency Range = 0.1MHz-15MHz
*   Ambient Temperature = 25 degC
*   Inductor Impedance Model
*   Use model for Time Domain simulations
*======================================================================
.subckt DO1605T-103_imp port1 port2 PARAMS: Cpar=0.00pF Ind=9.65uH
X1 port1 port2 Model1D PARAMS:
+ R1=55600
+ R2=0.225
+ C= {Cpar}
+ K1=0.000028
+ K2=1.66
+ K3= {Ind}
+ K4=0.137
+ K5=0.0000007
+ L=0
+ Is=0
+ a=0
+ L_Z0=0
+ L_EL=0
+ L_F0=0E6
+ PkZ=51270.7624
.ends DO1605T-103_imp

*======================================================================
* SPICE Model generated by Coilcraft
* Coilcraft Part Number : DO1605T-153
* Inductance = 14.5uH
*======================================================================
* Model Parameters:
*   Valid Frequency Range = 0.1MHz-12MHz
*   Ambient Temperature = 25 degC
*   Inductor Frequency Model
*   Use model for Frequency Domain simulations
*======================================================================
.subckt DO1605T-153_freq port1 port2 PARAMS: Cpar=0.01pF Ind=14.5uH
X1 port1 port2 Model1A PARAMS:
+ R1=58800
+ R2=0.362
+ C= {Cpar}
+ K1=0.000022
+ K2=2.56
+ K3= {Ind}
+ K4=0.24
+ K5=7.39E-07
+ L=0
+ Is=0
+ a=0
+ L_Z0=0
+ L_EL=0
+ L_F0=0E6
+ PkZ=27115.1684
.ends DO1605T-153_freq

*======================================================================
* SPICE Model generated by Coilcraft
* Coilcraft Part Number : DO1605T-153
* Inductance = 14.5uH
*======================================================================
* Model Parameters:
*   Valid Frequency Range = 0.1MHz-12MHz
*   Ambient Temperature = 25 degC
*   Inductor Impedance Model
*   Use model for Time Domain simulations
*======================================================================
.subckt DO1605T-153_imp port1 port2 PARAMS: Cpar=0.01pF Ind=14.5uH
X1 port1 port2 Model1D PARAMS:
+ R1=58800
+ R2=0.362
+ C= {Cpar}
+ K1=0.000022
+ K2=2.56
+ K3= {Ind}
+ K4=0.24
+ K5=7.39E-07
+ L=0
+ Is=0
+ a=0
+ L_Z0=0
+ L_EL=0
+ L_F0=0E6
+ PkZ=27115.1684
.ends DO1605T-153_imp

*======================================================================
* SPICE Model generated by Coilcraft
* Coilcraft Part Number : DO1605T-223
* Inductance = 21.5uH
*======================================================================
* Model Parameters:
*   Valid Frequency Range = 0.1MHz-6MHz
*   Ambient Temperature = 25 degC
*   Inductor Frequency Model
*   Use model for Frequency Domain simulations
*======================================================================
.subckt DO1605T-223_freq port1 port2 PARAMS: Cpar=0.64pF Ind=21.5uH
X1 port1 port2 Model1A PARAMS:
+ R1=58800
+ R2=0.546
+ C= {Cpar}
+ K1=0.0000176
+ K2=5.52
+ K3= {Ind}
+ K4=0.242
+ K5=4.54E-07
+ L=0
+ Is=0
+ a=0
+ L_Z0=0
+ L_EL=0
+ L_F0=0E6
+ PkZ=5573.0299
.ends DO1605T-223_freq

*======================================================================
* SPICE Model generated by Coilcraft
* Coilcraft Part Number : DO1605T-223
* Inductance = 21.5uH
*======================================================================
* Model Parameters:
*   Valid Frequency Range = 0.1MHz-6MHz
*   Ambient Temperature = 25 degC
*   Inductor Impedance Model
*   Use model for Time Domain simulations
*======================================================================
.subckt DO1605T-223_imp port1 port2 PARAMS: Cpar=0.62pF Ind=21.5uH
X1 port1 port2 Model1D PARAMS:
+ R1=58800
+ R2=0.546
+ C= {Cpar}
+ K1=0.0000176
+ K2=5.52
+ K3= {Ind}
+ K4=0.242
+ K5=4.54E-07
+ L=0
+ Is=0
+ a=0
+ L_Z0=0
+ L_EL=0
+ L_F0=0E6
+ PkZ=5573.0299
.ends DO1605T-223_imp

*======================================================================
* SPICE Model generated by Coilcraft
* Coilcraft Part Number : DO1605T-333
* Inductance = 31.8uH
*======================================================================
* Model Parameters:
*   Valid Frequency Range = 0.1MHz-6MHz
*   Ambient Temperature = 25 degC
*   Inductor Frequency Model
*   Use model for Frequency Domain simulations
*======================================================================
.subckt DO1605T-333_freq port1 port2 PARAMS: Cpar=0.454pF Ind=31.8uH
X1 port1 port2 Model1A PARAMS:
+ R1=39600
+ R2=0.653
+ C= {Cpar}
+ K1=0.000009
+ K2=6.25
+ K3= {Ind}
+ K4=0.49
+ K5=4.49E-07
+ L=0
+ Is=0
+ a=0
+ L_Z0=0
+ L_EL=0
+ L_F0=0E6
+ PkZ=7873.31059
.ends DO1605T-333_freq

*======================================================================
* SPICE Model generated by Coilcraft
* Coilcraft Part Number : DO1605T-333
* Inductance = 31.8uH
*======================================================================
* Model Parameters:
*   Valid Frequency Range = 0.1MHz-6MHz
*   Ambient Temperature = 25 degC
*   Inductor Impedance Model
*   Use model for Time Domain simulations
*======================================================================
.subckt DO1605T-333_imp port1 port2 PARAMS: Cpar=0.43pF Ind=31.8uH
X1 port1 port2 Model1D PARAMS:
+ R1=39600
+ R2=0.653
+ C= {Cpar}
+ K1=0.000009
+ K2=6.25
+ K3= {Ind}
+ K4=0.49
+ K5=4.49E-07
+ L=0
+ Is=0
+ a=0
+ L_Z0=0
+ L_EL=0
+ L_F0=0E6
+ PkZ=7873.31059
.ends DO1605T-333_imp

*======================================================================
* SPICE Model generated by Coilcraft
* Coilcraft Part Number : DO1605T-473
* Inductance = 46uH
*======================================================================
* Model Parameters:
*   Valid Frequency Range = 0.1MHz-6MHz
*   Ambient Temperature = 25 degC
*   Inductor Frequency Model
*   Use model for Frequency Domain simulations
*======================================================================
.subckt DO1605T-473_freq port1 port2 PARAMS: Cpar=0.89pF Ind=46uH
X1 port1 port2 Model1A PARAMS:
+ R1=19800
+ R2=1.11
+ C= {Cpar}
+ K1=0.00000943
+ K2=11.7
+ K3= {Ind}
+ K4=0.434
+ K5=0.00000109
+ L=0
+ Is=0
+ a=0
+ L_Z0=0
+ L_EL=0
+ L_F0=0E6
+ PkZ=7157.00675
.ends DO1605T-473_freq

*======================================================================
* SPICE Model generated by Coilcraft
* Coilcraft Part Number : DO1605T-473
* Inductance = 46uH
*======================================================================
* Model Parameters:
*   Valid Frequency Range = 0.1MHz-6MHz
*   Ambient Temperature = 25 degC
*   Inductor Impedance Model
*   Use model for Time Domain simulations
*======================================================================
.subckt DO1605T-473_imp port1 port2 PARAMS: Cpar=0.86pF Ind=46uH
X1 port1 port2 Model1D PARAMS:
+ R1=19800
+ R2=1.11
+ C= {Cpar}
+ K1=0.00000943
+ K2=11.7
+ K3= {Ind}
+ K4=0.434
+ K5=0.00000109
+ L=0
+ Is=0
+ a=0
+ L_Z0=0
+ L_EL=0
+ L_F0=0E6
+ PkZ=7157.00675
.ends DO1605T-473_imp

*======================================================================
* SPICE Model generated by Coilcraft
* Coilcraft Part Number : DO1605T-683
* Inductance = 67.3uH
*======================================================================
* Model Parameters:
*   Valid Frequency Range = 0.1MHz-6MHz
*   Ambient Temperature = 25 degC
*   Inductor Frequency Model
*   Use model for Frequency Domain simulations
*======================================================================
.subckt DO1605T-683_freq port1 port2 PARAMS: Cpar=0.973pF Ind=67.3uH
X1 port1 port2 Model1A PARAMS:
+ R1=13000
+ R2=2.1
+ C= {Cpar}
+ K1=0.00000416
+ K2=23.4
+ K3= {Ind}
+ K4=0.326
+ K5=6.01E-07
+ L=0
+ Is=0
+ a=0
+ L_Z0=0
+ L_EL=0
+ L_F0=0E6
+ PkZ=9300.1638
.ends DO1605T-683_freq

*======================================================================
* SPICE Model generated by Coilcraft
* Coilcraft Part Number : DO1605T-683
* Inductance = 67.3uH
*======================================================================
* Model Parameters:
*   Valid Frequency Range = 0.1MHz-6MHz
*   Ambient Temperature = 25 degC
*   Inductor Impedance Model
*   Use model for Time Domain simulations
*======================================================================
.subckt DO1605T-683_imp port1 port2 PARAMS: Cpar=0.96pF Ind=67.3uH
X1 port1 port2 Model1D PARAMS:
+ R1=13000
+ R2=2.1
+ C= {Cpar}
+ K1=0.00000416
+ K2=23.4
+ K3= {Ind}
+ K4=0.326
+ K5=6.01E-07
+ L=0
+ Is=0
+ a=0
+ L_Z0=0
+ L_EL=0
+ L_F0=0E6
+ PkZ=9300.1638
.ends DO1605T-683_imp

*======================================================================
* SPICE Model generated by Coilcraft
* Coilcraft Part Number : DO1605T-104
* Inductance = 98.1uH
*======================================================================
* Model Parameters:
*   Valid Frequency Range = 0.1MHz-6MHz
*   Ambient Temperature = 25 degC
*   Inductor Frequency Model
*   Use model for Frequency Domain simulations
*======================================================================
.subckt DO1605T-104_freq port1 port2 PARAMS: Cpar=1.04pF Ind=98.1uH
X1 port1 port2 Model1A PARAMS:
+ R1=5900
+ R2=2.94
+ C= {Cpar}
+ K1=0.00000418
+ K2=36.9
+ K3= {Ind}
+ K4=0.693
+ K5=5.81E-07
+ L=0
+ Is=0
+ a=0
+ L_Z0=0
+ L_EL=0
+ L_F0=0E6
+ PkZ=16641.9385
.ends DO1605T-104_freq

*======================================================================
* SPICE Model generated by Coilcraft
* Coilcraft Part Number : DO1605T-104
* Inductance = 98.1uH
*======================================================================
* Model Parameters:
*   Valid Frequency Range = 0.1MHz-6MHz
*   Ambient Temperature = 25 degC
*   Inductor Impedance Model
*   Use model for Time Domain simulations
*======================================================================
.subckt DO1605T-104_imp port1 port2 PARAMS: Cpar=1.02pF Ind=98.1uH
X1 port1 port2 Model1D PARAMS:
+ R1=5900
+ R2=2.94
+ C= {Cpar}
+ K1=0.00000418
+ K2=36.9
+ K3= {Ind}
+ K4=0.693
+ K5=5.81E-07
+ L=0
+ Is=0
+ a=0
+ L_Z0=0
+ L_EL=0
+ L_F0=0E6
+ PkZ=16641.9385
.ends DO1605T-104_imp

*======================================================================
* SPICE Model generated by Coilcraft
* Coilcraft Part Number : DO1605T-154
* Inductance = 149uH
*======================================================================
* Model Parameters:
*   Valid Frequency Range = 0.1MHz-6MHz
*   Ambient Temperature = 25 degC
*   Inductor Frequency Model
*   Use model for Frequency Domain simulations
*======================================================================
.subckt DO1605T-154_freq port1 port2 PARAMS: Cpar=1.04pF Ind=149uH
X1 port1 port2 Model1A PARAMS:
+ R1=6680
+ R2=3.7
+ C= {Cpar}
+ K1=0.00000292
+ K2=45.4
+ K3= {Ind}
+ K4=0.693
+ K5=5.81E-07
+ L=0
+ Is=0
+ a=0
+ L_Z0=0
+ L_EL=0
+ L_F0=0E6
+ PkZ=21503.9481
.ends DO1605T-154_freq

*======================================================================
* SPICE Model generated by Coilcraft
* Coilcraft Part Number : DO1605T-154
* Inductance = 149uH
*======================================================================
* Model Parameters:
*   Valid Frequency Range = 0.1MHz-6MHz
*   Ambient Temperature = 25 degC
*   Inductor Impedance Model
*   Use model for Time Domain simulations
*======================================================================
.subckt DO1605T-154_imp port1 port2 PARAMS: Cpar=1.03pF Ind=149uH
X1 port1 port2 Model1D PARAMS:
+ R1=6680
+ R2=3.7
+ C= {Cpar}
+ K1=0.00000292
+ K2=45.4
+ K3= {Ind}
+ K4=0.693
+ K5=5.81E-07
+ L=0
+ Is=0
+ a=0
+ L_Z0=0
+ L_EL=0
+ L_F0=0E6
+ PkZ=21503.9481
.ends DO1605T-154_imp

*======================================================================
* SPICE Model generated by Coilcraft
* Coilcraft Part Number : DO1605T-224
* Inductance = 220uH
*======================================================================
* Model Parameters:
*   Valid Frequency Range = 0.1MHz-5MHz
*   Ambient Temperature = 25 degC
*   Inductor Frequency Model
*   Use model for Frequency Domain simulations
*======================================================================
.subckt DO1605T-224_freq port1 port2 PARAMS: Cpar=1.01pF Ind=220uH
X1 port1 port2 Model1A PARAMS:
+ R1=1490
+ R2=6.92
+ C= {Cpar}
+ K1=0.00000293
+ K2=104
+ K3= {Ind}
+ K4=0.976
+ K5=5.98E-07
+ L=0
+ Is=0
+ a=0
+ L_Z0=0
+ L_EL=0
+ L_F0=0E6
+ PkZ=102170.097
.ends DO1605T-224_freq

*======================================================================
* SPICE Model generated by Coilcraft
* Coilcraft Part Number : DO1605T-224
* Inductance = 220uH
*======================================================================
* Model Parameters:
*   Valid Frequency Range = 0.1MHz-5MHz
*   Ambient Temperature = 25 degC
*   Inductor Impedance Model
*   Use model for Time Domain simulations
*======================================================================
.subckt DO1605T-224_imp port1 port2 PARAMS: Cpar=1.00pF Ind=220uH
X1 port1 port2 Model1D PARAMS:
+ R1=1490
+ R2=6.92
+ C= {Cpar}
+ K1=0.00000293
+ K2=104
+ K3= {Ind}
+ K4=0.976
+ K5=5.98E-07
+ L=0
+ Is=0
+ a=0
+ L_Z0=0
+ L_EL=0
+ L_F0=0E6
+ PkZ=102170.097
.ends DO1605T-224_imp

*======================================================================
* SPICE Model generated by Coilcraft
* Coilcraft Part Number : DO1605T-334
* Inductance = 328uH
*======================================================================
* Model Parameters:
*   Valid Frequency Range = 0.1MHz-4MHz
*   Ambient Temperature = 25 degC
*   Inductor Frequency Model
*   Use model for Frequency Domain simulations
*======================================================================
.subckt DO1605T-334_freq port1 port2 PARAMS: Cpar=1.04pF Ind=328uH
X1 port1 port2 Model1A PARAMS:
+ R1=1580
+ R2=10.8
+ C= {Cpar}
+ K1=0.00000313
+ K2=227
+ K3= {Ind}
+ K4=1.5
+ K5=3.44E-07
+ L=0
+ Is=0
+ a=0
+ L_Z0=0
+ L_EL=0
+ L_F0=0E6
+ PkZ=153639.482
.ends DO1605T-334_freq

*======================================================================
* SPICE Model generated by Coilcraft
* Coilcraft Part Number : DO1605T-334
* Inductance = 328uH
*======================================================================
* Model Parameters:
*   Valid Frequency Range = 0.1MHz-4MHz
*   Ambient Temperature = 25 degC
*   Inductor Impedance Model
*   Use model for Time Domain simulations
*======================================================================
.subckt DO1605T-334_imp port1 port2 PARAMS: Cpar=1.03pF Ind=328uH
X1 port1 port2 Model1D PARAMS:
+ R1=1580
+ R2=10.8
+ C= {Cpar}
+ K1=0.00000313
+ K2=227
+ K3= {Ind}
+ K4=1.5
+ K5=3.44E-07
+ L=0
+ Is=0
+ a=0
+ L_Z0=0
+ L_EL=0
+ L_F0=0E6
+ PkZ=153639.482
.ends DO1605T-334_imp

*======================================================================
* SPICE Model generated by Coilcraft
* Coilcraft Part Number : DO1605T-474
* Inductance = 470uH
*======================================================================
* Model Parameters:
*   Valid Frequency Range = 0.1MHz-3.5MHz
*   Ambient Temperature = 25 degC
*   Inductor Frequency Model
*   Use model for Frequency Domain simulations
*======================================================================
.subckt DO1605T-474_freq port1 port2 PARAMS: Cpar=1.16pF Ind=470uH
X1 port1 port2 Model1A PARAMS:
+ R1=1490
+ R2=13.2
+ C= {Cpar}
+ K1=0.00000351
+ K2=274
+ K3= {Ind}
+ K4=1.85
+ K5=6.29E-07
+ L=0
+ Is=0
+ a=0
+ L_Z0=0
+ L_EL=0
+ L_F0=0E6
+ PkZ=196799.129
.ends DO1605T-474_freq

*======================================================================
* SPICE Model generated by Coilcraft
* Coilcraft Part Number : DO1605T-474
* Inductance = 470uH
*======================================================================
* Model Parameters:
*   Valid Frequency Range = 0.1MHz-3.5MHz
*   Ambient Temperature = 25 degC
*   Inductor Impedance Model
*   Use model for Time Domain simulations
*======================================================================
.subckt DO1605T-474_imp port1 port2 PARAMS: Cpar=1.15pF Ind=470uH
X1 port1 port2 Model1D PARAMS:
+ R1=1490
+ R2=13.2
+ C= {Cpar}
+ K1=0.00000351
+ K2=274
+ K3= {Ind}
+ K4=1.85
+ K5=6.29E-07
+ L=0
+ Is=0
+ a=0
+ L_Z0=0
+ L_EL=0
+ L_F0=0E6
+ PkZ=196799.129
.ends DO1605T-474_imp

*======================================================================
* SPICE Model generated by Coilcraft
* Coilcraft Part Number : DO1605T-684
* Inductance = 680uH
*======================================================================
* Model Parameters:
*   Valid Frequency Range = 0.1MHz-3MHz
*   Ambient Temperature = 25 degC
*   Inductor Frequency Model
*   Use model for Frequency Domain simulations
*======================================================================
.subckt DO1605T-684_freq port1 port2 PARAMS: Cpar=1.14pF Ind=680uH
X1 port1 port2 Model1A PARAMS:
+ R1=1550
+ R2=20.9
+ C= {Cpar}
+ K1=0.00000509
+ K2=528
+ K3= {Ind}
+ K4=0.89
+ K5=0.00000128
+ L=0
+ Is=0
+ a=0
+ L_Z0=0
+ L_EL=0
+ L_F0=0E6
+ PkZ=294961.711
.ends DO1605T-684_freq

*======================================================================
* SPICE Model generated by Coilcraft
* Coilcraft Part Number : DO1605T-684
* Inductance = 680uH
*======================================================================
* Model Parameters:
*   Valid Frequency Range = 0.1MHz-3MHz
*   Ambient Temperature = 25 degC
*   Inductor Impedance Model
*   Use model for Time Domain simulations
*======================================================================
.subckt DO1605T-684_imp port1 port2 PARAMS: Cpar=1.14pF Ind=680uH
X1 port1 port2 Model1D PARAMS:
+ R1=1550
+ R2=20.9
+ C= {Cpar}
+ K1=0.00000509
+ K2=528
+ K3= {Ind}
+ K4=0.89
+ K5=0.00000128
+ L=0
+ Is=0
+ a=0
+ L_Z0=0
+ L_EL=0
+ L_F0=0E6
+ PkZ=294961.711
.ends DO1605T-684_imp

*======================================================================
* SPICE Model generated by Coilcraft
* Coilcraft Part Number : DO1605T-105
* Inductance = 1000uH
*======================================================================
* Model Parameters:
*   Valid Frequency Range = 0.1MHz-2MHz
*   Ambient Temperature = 25 degC
*   Inductor Frequency Model
*   Use model for Frequency Domain simulations
*======================================================================
.subckt DO1605T-105_freq port1 port2 PARAMS: Cpar=1.11pF Ind=1000uH
X1 port1 port2 Model1A PARAMS:
+ R1=8
+ R2=27.9
+ C= {Cpar}
+ K1=0.00000509
+ K2=563
+ K3= {Ind}
+ K4=0.89
+ K5=0.00000128
+ L=0
+ Is=0
+ a=0
+ L_Z0=0
+ L_EL=0
+ L_F0=0E6
+ PkZ=1217690.63
.ends DO1605T-105_freq

*======================================================================
* SPICE Model generated by Coilcraft
* Coilcraft Part Number : DO1605T-105
* Inductance = 1000uH
*======================================================================
* Model Parameters:
*   Valid Frequency Range = 0.1MHz-2MHz
*   Ambient Temperature = 25 degC
*   Inductor Impedance Model
*   Use model for Time Domain simulations
*======================================================================
.subckt DO1605T-105_imp port1 port2 PARAMS: Cpar=1.11pF Ind=1000uH
X1 port1 port2 Model1D PARAMS:
+ R1=8
+ R2=27.9
+ C= {Cpar}
+ K1=0.00000509
+ K2=563