*======================================================================
* SPICE Model generated by Coilcraft
* Coilcraft Part Number : DO3316T-331
* Inductance = 0.33uH
*======================================================================
* Model Parameters:
*   Valid Frequency Range = 0.1MHz-100MHz
*   Ambient Temperature = 25 degC
*   Inductor Frequency Model
*   Use model for Frequency Domain simulations
*======================================================================
.subckt DO3316T-331_freq port1 port2 PARAMS: Cpar=12pF Ind=0.33uH
X1 port1 port2 Model1A PARAMS:
+ R1=400
+ R2=0.002
+ C= {Cpar}
+ K1=0.000022
+ K2=0.157
+ K3= {Ind}
+ K4=0.003
+ K5=0.0000097
+ L=0
+ Is=0
+ a=0
+ L_Z0=0
+ L_EL=0
+ L_F0=0E6
+ PkZ=164.626338
.ends DO3316T-331_freq

*======================================================================
* SPICE Model generated by Coilcraft
* Coilcraft Part Number : DO3316T-331
* Inductance = 0.33uH
*======================================================================
* Model Parameters:
*   Valid Frequency Range = 0.1MHz-100MHz
*   Ambient Temperature = 25 degC
*   Inductor Impedance Model
*   Use model for Time Domain simulations
*======================================================================
.subckt DO3316T-331_imp port1 port2 PARAMS: Cpar=11.27pF Ind=0.33uH
X1 port1 port2 Model1D PARAMS:
+ R1=400
+ R2=0.002
+ C= {Cpar}
+ K1=0.000022
+ K2=0.157
+ K3= {Ind}
+ K4=0.003
+ K5=0.0000097
+ L=0
+ Is=0
+ a=0
+ L_Z0=0
+ L_EL=0
+ L_F0=0E6
+ PkZ=164.626338
.ends DO3316T-331_imp

*======================================================================
* SPICE Model generated by Coilcraft
* Coilcraft Part Number : DO3316T-681
* Inductance = 0.68uH
*======================================================================
* Model Parameters:
*   Valid Frequency Range = 0.1MHz-100MHz
*   Ambient Temperature = 25 degC
*   Inductor Frequency Model
*   Use model for Frequency Domain simulations
*======================================================================
.subckt DO3316T-681_freq port1 port2 PARAMS: Cpar=6.38pF Ind=0.68uH
X1 port1 port2 Model1A PARAMS:
+ R1=600
+ R2=0.005
+ C= {Cpar}
+ K1=0.00008
+ K2=0.473
+ K3= {Ind}
+ K4=0.005
+ K5=0.0000097
+ L=0
+ Is=0
+ a=0
+ L_Z0=0
+ L_EL=0
+ L_F0=0E6
+ PkZ=345.098002
.ends DO3316T-681_freq

*======================================================================
* SPICE Model generated by Coilcraft
* Coilcraft Part Number : DO3316T-681
* Inductance = 0.68uH
*======================================================================
* Model Parameters:
*   Valid Frequency Range = 0.1MHz-100MHz
*   Ambient Temperature = 25 degC
*   Inductor Impedance Model
*   Use model for Time Domain simulations
*======================================================================
.subckt DO3316T-681_imp port1 port2 PARAMS: Cpar=6.07pF Ind=0.68uH
X1 port1 port2 Model1D PARAMS:
+ R1=600
+ R2=0.005
+ C= {Cpar}
+ K1=0.00008
+ K2=0.473
+ K3= {Ind}
+ K4=0.005
+ K5=0.0000097
+ L=0
+ Is=0
+ a=0
+ L_Z0=0
+ L_EL=0
+ L_F0=0E6
+ PkZ=345.098002
.ends DO3316T-681_imp

*======================================================================
* SPICE Model generated by Coilcraft
* Coilcraft Part Number : DO3316T-102
* Inductance = 1uH
*======================================================================
* Model Parameters:
*   Valid Frequency Range = 0.1MHz-100MHz
*   Ambient Temperature = 25 degC
*   Inductor Frequency Model
*   Use model for Frequency Domain simulations
*======================================================================
.subckt DO3316T-102_freq port1 port2 PARAMS: Cpar=3.25pF Ind=1uH
X1 port1 port2 Model1A PARAMS:
+ R1=675
+ R2=0.006
+ C= {Cpar}
+ K1=0.00011
+ K2=0.569
+ K3= {Ind}
+ K4=0.007
+ K5=0.0000097
+ L=0
+ Is=0
+ a=0
+ L_Z0=0
+ L_EL=0
+ L_F0=0E6
+ PkZ=638.679406
.ends DO3316T-102_freq

*======================================================================
* SPICE Model generated by Coilcraft
* Coilcraft Part Number : DO3316T-102
* Inductance = 1uH
*======================================================================
* Model Parameters:
*   Valid Frequency Range = 0.1MHz-100MHz
*   Ambient Temperature = 25 degC
*   Inductor Impedance Model
*   Use model for Time Domain simulations
*======================================================================
.subckt DO3316T-102_imp port1 port2 PARAMS: Cpar=3.10pF Ind=1uH
X1 port1 port2 Model1D PARAMS:
+ R1=675
+ R2=0.006
+ C= {Cpar}
+ K1=0.00011
+ K2=0.569
+ K3= {Ind}
+ K4=0.007
+ K5=0.0000097
+ L=0
+ Is=0
+ a=0
+ L_Z0=0
+ L_EL=0
+ L_F0=0E6
+ PkZ=638.679406
.ends DO3316T-102_imp

*======================================================================
* SPICE Model generated by Coilcraft
* Coilcraft Part Number : DO3316T-152
* Inductance = 1.5uH
*======================================================================
* Model Parameters:
*   Valid Frequency Range = 0.1MHz-100MHz
*   Ambient Temperature = 25 degC
*   Inductor Frequency Model
*   Use model for Frequency Domain simulations
*======================================================================
.subckt DO3316T-152_freq port1 port2 PARAMS: Cpar=2.42pF Ind=1.5uH
X1 port1 port2 Model1A PARAMS:
+ R1=750
+ R2=0.008
+ C= {Cpar}
+ K1=0.00025
+ K2=0.96
+ K3= {Ind}
+ K4=0.013
+ K5=0.0000097
+ L=0
+ Is=0
+ a=0
+ L_Z0=0
+ L_EL=0
+ L_F0=0E6
+ PkZ=996.771722
.ends DO3316T-152_freq

*======================================================================
* SPICE Model generated by Coilcraft
* Coilcraft Part Number : DO3316T-152
* Inductance = 1.5uH
*======================================================================
* Model Parameters:
*   Valid Frequency Range = 0.1MHz-100MHz
*   Ambient Temperature = 25 degC
*   Inductor Impedance Model
*   Use model for Time Domain simulations
*======================================================================
.subckt DO3316T-152_imp port1 port2 PARAMS: Cpar=2.28pF Ind=1.5uH
X1 port1 port2 Model1D PARAMS:
+ R1=750
+ R2=0.008
+ C= {Cpar}
+ K1=0.00025
+ K2=0.96
+ K3= {Ind}
+ K4=0.013
+ K5=0.0000097
+ L=0
+ Is=0
+ a=0
+ L_Z0=0
+ L_EL=0
+ L_F0=0E6
+ PkZ=996.771722
.ends DO3316T-152_imp

*======================================================================
* SPICE Model generated by Coilcraft
* Coilcraft Part Number : DO3316T-222
* Inductance = 2.2uH
*======================================================================
* Model Parameters:
*   Valid Frequency Range = 0.1MHz-100MHz
*   Ambient Temperature = 25 degC
*   Inductor Frequency Model
*   Use model for Frequency Domain simulations
*======================================================================
.subckt DO3316T-222_freq port1 port2 PARAMS: Cpar=1.9pF Ind=2.2uH
X1 port1 port2 Model1A PARAMS:
+ R1=960
+ R2=0.011
+ C= {Cpar}
+ K1=0.000375
+ K2=1.058
+ K3= {Ind}
+ K4=0.014
+ K5=0.0000091
+ L=0
+ Is=0
+ a=0
+ L_Z0=0
+ L_EL=0
+ L_F0=0E6
+ PkZ=1381.49181
.ends DO3316T-222_freq

*======================================================================
* SPICE Model generated by Coilcraft
* Coilcraft Part Number : DO3316T-222
* Inductance = 2.2uH
*======================================================================
* Model Parameters:
*   Valid Frequency Range = 0.1MHz-100MHz
*   Ambient Temperature = 25 degC
*   Inductor Impedance Model
*   Use model for Time Domain simulations
*======================================================================
.subckt DO3316T-222_imp port1 port2 PARAMS: Cpar=1.82pF Ind=2.2uH
X1 port1 port2 Model1D PARAMS:
+ R1=960
+ R2=0.011
+ C= {Cpar}
+ K1=0.000375
+ K2=1.058
+ K3= {Ind}
+ K4=0.014
+ K5=0.0000091
+ L=0
+ Is=0
+ a=0
+ L_Z0=0
+ L_EL=0
+ L_F0=0E6
+ PkZ=1381.49181
.ends DO3316T-222_imp

*======================================================================
* SPICE Model generated by Coilcraft
* Coilcraft Part Number : DO3316T-272
* Inductance = 2.7uH
*======================================================================
* Model Parameters:
*   Valid Frequency Range = 0.1MHz-100MHz
*   Ambient Temperature = 25 degC
*   Inductor Frequency Model
*   Use model for Frequency Domain simulations
*======================================================================
.subckt DO3316T-272_freq port1 port2 PARAMS: Cpar=2.15pF Ind=2.7uH
X1 port1 port2 Model1A PARAMS:
+ R1=610
+ R2=0.012
+ C= {Cpar}
+ K1=0.00000475
+ K2=1.489
+ K3= {Ind}
+ K4=0.016
+ K5=0.0000091
+ L=0
+ Is=0
+ a=0
+ L_Z0=0
+ L_EL=0
+ L_F0=0E6
+ PkZ=1943.16843
.ends DO3316T-272_freq

*======================================================================
* SPICE Model generated by Coilcraft
* Coilcraft Part Number : DO3316T-272
* Inductance = 2.7uH
*======================================================================
* Model Parameters:
*   Valid Frequency Range = 0.1MHz-100MHz
*   Ambient Temperature = 25 degC
*   Inductor Impedance Model
*   Use model for Time Domain simulations
*======================================================================
.subckt DO3316T-272_imp port1 port2 PARAMS: Cpar=2.07pF Ind=2.7uH
X1 port1 port2 Model1D PARAMS:
+ R1=610
+ R2=0.012
+ C= {Cpar}
+ K1=0.00000475
+ K2=1.489
+ K3= {Ind}
+ K4=0.016
+ K5=0.0000091
+ L=0
+ Is=0
+ a=0
+ L_Z0=0
+ L_EL=0
+ L_F0=0E6
+ PkZ=1943.16843
.ends DO3316T-272_imp

*======================================================================
* SPICE Model generated by Coilcraft
* Coilcraft Part Number : DO3316T-332
* Inductance = 3.3uH
*======================================================================
* Model Parameters:
*   Valid Frequency Range = 0.1MHz-100MHz
*   Ambient Temperature = 25 degC
*   Inductor Frequency Model
*   Use model for Frequency Domain simulations
*======================================================================
.subckt DO3316T-332_freq port1 port2 PARAMS: Cpar=2.37pF Ind=3.3uH
X1 port1 port2 Model1A PARAMS:
+ R1=420
+ R2=0.014
+ C= {Cpar}
+ K1=0.000675
+ K2=1.8
+ K3= {Ind}
+ K4=0.02
+ K5=0.000009
+ L=0
+ Is=0
+ a=0
+ L_Z0=0
+ L_EL=0
+ L_F0=0E6
+ PkZ=2718.75197
.ends DO3316T-332_freq

*======================================================================
* SPICE Model generated by Coilcraft
* Coilcraft Part Number : DO3316T-332
* Inductance = 3.3uH
*======================================================================
* Model Parameters:
*   Valid Frequency Range = 0.1MHz-100MHz
*   Ambient Temperature = 25 degC
*   Inductor Impedance Model
*   Use model for Time Domain simulations
*======================================================================
.subckt DO3316T-332_imp port1 port2 PARAMS: Cpar=2.28pF Ind=3.3uH
X1 port1 port2 Model1D PARAMS:
+ R1=420
+ R2=0.014
+ C= {Cpar}
+ K1=0.000675
+ K2=1.8
+ K3= {Ind}
+ K4=0.02
+ K5=0.000009
+ L=0
+ Is=0
+ a=0
+ L_Z0=0
+ L_EL=0
+ L_F0=0E6
+ PkZ=2718.75197
.ends DO3316T-332_imp

*======================================================================
* SPICE Model generated by Coilcraft
* Coilcraft Part Number : DO3316T-392
* Inductance = 3.9uH
*======================================================================
* Model Parameters:
*   Valid Frequency Range = 0.1MHz-80MHz
*   Ambient Temperature = 25 degC
*   Inductor Frequency Model
*   Use model for Frequency Domain simulations
*======================================================================
.subckt DO3316T-392_freq port1 port2 PARAMS: Cpar=2.61pF Ind=3.9uH
X1 port1 port2 Model1A PARAMS:
+ R1=290
+ R2=0.015
+ C= {Cpar}
+ K1=0.00089
+ K2=2.3
+ K3= {Ind}
+ K4=0.05
+ K5=0.0000095
+ L=0
+ Is=0
+ a=0
+ L_Z0=0
+ L_EL=0
+ L_F0=0E6
+ PkZ=3728.89871
.ends DO3316T-392_freq

*======================================================================
* SPICE Model generated by Coilcraft
* Coilcraft Part Number : DO3316T-392
* Inductance = 3.9uH
*======================================================================
* Model Parameters:
*   Valid Frequency Range = 0.1MHz-80MHz
*   Ambient Temperature = 25 degC
*   Inductor Impedance Model
*   Use model for Time Domain simulations
*======================================================================
.subckt DO3316T-392_imp port1 port2 PARAMS: Cpar=2.40pF Ind=3.9uH
X1 port1 port2 Model1D PARAMS:
+ R1=290
+ R2=0.015
+ C= {Cpar}
+ K1=0.00089
+ K2=2.3
+ K3= {Ind}
+ K4=0.05
+ K5=0.0000095
+ L=0
+ Is=0
+ a=0
+ L_Z0=0
+ L_EL=0
+ L_F0=0E6
+ PkZ=3728.89871
.ends DO3316T-392_imp

*======================================================================
* SPICE Model generated by Coilcraft
* Coilcraft Part Number : DO3316T-472
* Inductance = 4.7uH
*======================================================================
* Model Parameters:
*   Valid Frequency Range = 0.1MHz-70MHz
*   Ambient Temperature = 25 degC
*   Inductor Frequency Model
*   Use model for Frequency Domain simulations
*======================================================================
.subckt DO3316T-472_freq port1 port2 PARAMS: Cpar=2.17pF Ind=4.7uH
X1 port1 port2 Model1A PARAMS:
+ R1=375
+ R2=0.018
+ C= {Cpar}
+ K1=0.00105
+ K2=2.42
+ K3= {Ind}
+ K4=0.09
+ K5=0.0000096
+ L=0
+ Is=0
+ a=0
+ L_Z0=0
+ L_EL=0
+ L_F0=0E6
+ PkZ=4019.16539
.ends DO3316T-472_freq

*======================================================================
* SPICE Model generated by Coilcraft
* Coilcraft Part Number : DO3316T-472
* Inductance = 4.7uH
*======================================================================
* Model Parameters:
*   Valid Frequency Range = 0.1MHz-70MHz
*   Ambient Temperature = 25 degC
*   Inductor Impedance Model
*   Use model for Time Domain simulations
*======================================================================
.subckt DO3316T-472_imp port1 port2 PARAMS: Cpar=1.91pF Ind=4.7uH
X1 port1 port2 Model1D PARAMS:
+ R1=375
+ R2=0.018
+ C= {Cpar}
+ K1=0.00105
+ K2=2.42
+ K3= {Ind}
+ K4=0.09
+ K5=0.0000096
+ L=0
+ Is=0
+ a=0
+ L_Z0=0
+ L_EL=0
+ L_F0=0E6
+ PkZ=4019.16539
.ends DO3316T-472_imp

*======================================================================
* SPICE Model generated by Coilcraft
* Coilcraft Part Number : DO3316T-562
* Inductance = 5.6uH
*======================================================================
* Model Parameters:
*   Valid Frequency Range = 0.1MHz-60MHz
*   Ambient Temperature = 25 degC
*   Inductor Frequency Model
*   Use model for Frequency Domain simulations
*======================================================================
.subckt DO3316T-562_freq port1 port2 PARAMS: Cpar=2.17pF Ind=5.6uH
X1 port1 port2 Model1A PARAMS:
+ R1=420
+ R2=0.021
+ C= {Cpar}
+ K1=0.00095
+ K2=3.24
+ K3= {Ind}
+ K4=0.09
+ K5=0.0000096
+ L=0
+ Is=0
+ a=0
+ L_Z0=0
+ L_EL=0
+ L_F0=0E6
+ PkZ=4544.34922
.ends DO3316T-562_freq

*======================================================================
* SPICE Model generated by Coilcraft
* Coilcraft Part Number : DO3316T-562
* Inductance = 5.6uH
*======================================================================
* Model Parameters:
*   Valid Frequency Range = 0.1MHz-60MHz
*   Ambient Temperature = 25 degC
*   Inductor Impedance Model
*   Use model for Time Domain simulations
*======================================================================
.subckt DO3316T-562_imp port1 port2 PARAMS: Cpar=1.96pF Ind=5.6uH
X1 port1 port2 Model1D PARAMS:
+ R1=420
+ R2=0.021
+ C= {Cpar}
+ K1=0.00095
+ K2=3.24
+ K3= {Ind}
+ K4=0.09
+ K5=0.0000096
+ L=0
+ Is=0
+ a=0
+ L_Z0=0
+ L_EL=0
+ L_F0=0E6
+ PkZ=4544.34922
.ends DO3316T-562_imp

*======================================================================
* SPICE Model generated by Coilcraft
* Coilcraft Part Number : DO3316T-682
* Inductance = 6.8uH
*======================================================================
* Model Parameters:
*   Valid Frequency Range = 0.1MHz-50MHz
*   Ambient Temperature = 25 degC
*   Inductor Frequency Model
*   Use model for Frequency Domain simulations
*======================================================================
.subckt DO3316T-682_freq port1 port2 PARAMS: Cpar=3.32pF Ind=6.8uH
X1 port1 port2 Model1A PARAMS:
+ R1=200
+ R2=0.024
+ C= {Cpar}
+ K1=0.0012
+ K2=3.58
+ K3= {Ind}
+ K4=0.133
+ K5=0.00000965
+ L=0
+ Is=0
+ a=0
+ L_Z0=0
+ L_EL=0
+ L_F0=0E6
+ PkZ=6273.2298
.ends DO3316T-682_freq

*======================================================================
* SPICE Model generated by Coilcraft
* Coilcraft Part Number : DO3316T-682
* Inductance = 6.8uH
*======================================================================
* Model Parameters:
*   Valid Frequency Range = 0.1MHz-50MHz
*   Ambient Temperature = 25 degC
*   Inductor Impedance Model
*   Use model for Time Domain simulations
*======================================================================
.subckt DO3316T-682_imp port1 port2 PARAMS: Cpar=2.94pF Ind=6.8uH
X1 port1 port2 Model1D PARAMS:
+ R1=200
+ R2=0.024
+ C= {Cpar}
+ K1=0.0012
+ K2=3.58
+ K3= {Ind}
+ K4=0.133
+ K5=0.00000965
+ L=0
+ Is=0
+ a=0
+ L_Z0=0
+ L_EL=0
+ L_F0=0E6
+ PkZ=6273.2298
.ends DO3316T-682_imp

*======================================================================
* SPICE Model generated by Coilcraft
* Coilcraft Part Number : DO3316T-822
* Inductance = 8.2uH
*======================================================================
* Model Parameters:
*   Valid Frequency Range = 0.1MHz-40MHz
*   Ambient Temperature = 25 degC
*   Inductor Frequency Model
*   Use model for Frequency Domain simulations
*======================================================================
.subckt DO3316T-822_freq port1 port2 PARAMS: Cpar=3.01pF Ind=8.2uH
X1 port1 port2 Model1A PARAMS:
+ R1=240
+ R2=0.032
+ C= {Cpar}
+ K1=0.002
+ K2=5.25
+ K3= {Ind}
+ K4=0.22
+ K5=0.0000097
+ L=0
+ Is=0
+ a=0
+ L_Z0=0
+ L_EL=0
+ L_F0=0E6
+ PkZ=7135.41205
.ends DO3316T-822_freq

*======================================================================
* SPICE Model generated by Coilcraft
* Coilcraft Part Number : DO3316T-822
* Inductance = 8.2uH
*======================================================================
* Model Parameters:
*   Valid Frequency Range = 0.1MHz-40MHz
*   Ambient Temperature = 25 degC
*   Inductor Impedance Model
*   Use model for Time Domain simulations
*======================================================================
.subckt DO3316T-822_imp port1 port2 PARAMS: Cpar=2.55pF Ind=8.2uH
X1 port1 port2 Model1D PARAMS:
+ R1=240
+ R2=0.032
+ C= {Cpar}
+ K1=0.002
+ K2=5.25
+ K3= {Ind}
+ K4=0.22
+ K5=0.0000097
+ L=0
+ Is=0
+ a=0
+ L_Z0=0
+ L_EL=0
+ L_F0=0E6
+ PkZ=7135.41205
.ends DO3316T-822_imp

*======================================================================
* SPICE Model generated by Coilcraft
* Coilcraft Part Number : DO3316T-103
* Inductance = 10uH
*======================================================================
* Model Parameters:
*   Valid Frequency Range = 0.1MHz-40MHz
*   Ambient Temperature = 25 degC
*   Inductor Frequency Model
*   Use model for Frequency Domain simulations
*======================================================================
.subckt DO3316T-103_freq port1 port2 PARAMS: Cpar=3.47pF Ind=10uH
X1 port1 port2 Model1A PARAMS:
+ R1=165
+ R2=0.034
+ C= {Cpar}
+ K1=0.00313
+ K2=7.04
+ K3= {Ind}
+ K4=0.31
+ K5=0.00000972
+ L=0
+ Is=0
+ a=0
+ L_Z0=0
+ L_EL=0
+ L_F0=0E6
+ PkZ=9790.57373
.ends DO3316T-103_freq

*======================================================================
* SPICE Model generated by Coilcraft
* Coilcraft Part Number : DO3316T-103
* Inductance = 10uH
*======================================================================
* Model Parameters:
*   Valid Frequency Range = 0.1MHz-40MHz
*   Ambient Temperature = 25 degC
*   Inductor Impedance Model
*   Use model for Time Domain simulations
*======================================================================
.subckt DO3316T-103_imp port1 port2 PARAMS: Cpar=2.87pF Ind=10uH
X1 port1 port2 Model1D PARAMS:
+ R1=165
+ R2=0.034
+ C= {Cpar}
+ K1=0.00313
+ K2=7.04
+ K3= {Ind}
+ K4=0.31
+ K5=0.00000972
+ L=0
+ Is=0
+ a=0
+ L_Z0=0
+ L_EL=0
+ L_F0=0E6
+ PkZ=9790.57373
.ends DO3316T-103_imp

*======================================================================
* SPICE Model generated by Coilcraft
* Coilcraft Part Number : DO3316T-123
* Inductance = 12uH
*======================================================================
* Model Parameters:
*   Valid Frequency Range = 0.1MHz-40MHz
*   Ambient Temperature = 25 degC
*   Inductor Frequency Model
*   Use model for Frequency Domain simulations
*======================================================================
.subckt DO3316T-123_freq port1 port2 PARAMS: Cpar=2.84pF Ind=12uH
X1 port1 port2 Model1A PARAMS:
+ R1=225
+ R2=0.036
+ C= {Cpar}
+ K1=0.00381
+ K2=6.7
+ K3= {Ind}
+ K4=0.395
+ K5=0.00000965
+ L=0
+ Is=0
+ a=0
+ L_Z0=0
+ L_EL=0
+ L_F0=0E6
+ PkZ=10197.9268
.ends DO3316T-123_freq

*======================================================================
* SPICE Model generated by Coilcraft
* Coilcraft Part Number : DO3316T-123
* Inductance = 12uH
*======================================================================
* Model Parameters:
*   Valid Frequency Range = 0.1MHz-40MHz
*   Ambient Temperature = 25 degC
*   Inductor Impedance Model
*   Use model for Time Domain simulations
*======================================================================
.subckt DO3316T-123_imp port1 port2 PARAMS: Cpar=2.32pF Ind=12uH
X1 port1 port2 Model1D PARAMS:
+ R1=225
+ R2=0.036
+ C= {Cpar}
+ K1=0.00381
+ K2=6.7
+ K3= {Ind}
+ K4=0.395
+ K5=0.00000965
+ L=0
+ Is=0
+ a=0
+ L_Z0=0
+ L_EL=0
+ L_F0=0E6
+ PkZ=10197.9268
.ends DO3316T-123_imp

*======================================================================
* SPICE Model generated by Coilcraft
* Coilcraft Part Number : DO3316T-153
* Inductance = 15uH
*======================================================================
* Model Parameters:
*   Valid Frequency Range = 0.1MHz-30MHz
*   Ambient Temperature = 25 degC
*   Inductor Frequency Model
*   Use model for Frequency Domain simulations
*======================================================================
.subckt DO3316T-153_freq port1 port2 PARAMS: Cpar=3.69pF Ind=15uH
X1 port1 port2 Model1A PARAMS:
+ R1=155
+ R2=0.045
+ C= {Cpar}
+ K1=0.00436
+ K2=9.44
+ K3= {Ind}
+ K4=0.529
+ K5=0.00000975
+ L=0
+ Is=0
+ a=0
+ L_Z0=0
+ L_EL=0
+ L_F0=0E6
+ PkZ=13307.12
.ends DO3316T-153_freq

*======================================================================
* SPICE Model generated by Coilcraft
* Coilcraft Part Number : DO3316T-153
* Inductance = 15uH
*======================================================================
* Model Parameters:
*   Valid Frequency Range = 0.1MHz-30MHz
*   Ambient Temperature = 25 degC
*   Inductor Impedance Model
*   Use model for Time Domain simulations
*======================================================================
.subckt DO3316T-153_imp port1 port2 PARAMS: Cpar=3.00pF Ind=15uH
X1 port1 port2 Model1D PARAMS:
+ R1=155
+ R2=0.045
+ C= {Cpar}
+ K1=0.00436
+ K2=9.44
+ K3= {Ind}
+ K4=0.529
+ K5=0.00000975
+ L=0
+ Is=0
+ a=0
+ L_Z0=0
+ L_EL=0
+ L_F0=0E6
+ PkZ=13307.12
.ends DO3316T-153_imp

*======================================================================
* SPICE Model generated by Coilcraft
* Coilcraft Part Number : DO3316T-183
* Inductance = 18uH
*======================================================================
* Model Parameters:
*   Valid Frequency Range = 0.1MHz-30MHz
*   Ambient Temperature = 25 degC
*   Inductor Frequency Model
*   Use model for Frequency Domain simulations
*======================================================================
.subckt DO3316T-183_freq port1 port2 PARAMS: Cpar=3.24pF Ind=18uH
X1 port1 port2 Model1A PARAMS:
+ R1=190
+ R2=0.05
+ C= {Cpar}
+ K1=0.00536
+ K2=10.4
+ K3= {Ind}
+ K4=0.68
+ K5=0.00000973
+ L=0
+ Is=0
+ a=0
+ L_Z0=0
+ L_EL=0
+ L_F0=0E6
+ PkZ=14591.3414
.ends DO3316T-183_freq

*======================================================================
* SPICE Model generated by Coilcraft
* Coilcraft Part Number : DO3316T-183
* Inductance = 18uH
*======================================================================
* Model Parameters:
*   Valid Frequency Range = 0.1MHz-30MHz
*   Ambient Temperature = 25 degC
*   Inductor Impedance Model
*   Use model for Time Domain simulations
*======================================================================
.subckt DO3316T-183_imp port1 port2 PARAMS: Cpar=2.59pF Ind=18uH
X1 port1 port2 Model1D PARAMS:
+ R1=190
+ R2=0.05
+ C= {Cpar}
+ K1=0.00536
+ K2=10.4
+ K3= {Ind}
+ K4=0.68
+ K5=0.00000973
+ L=0
+ Is=0
+ a=0
+ L_Z0=0
+ L_EL=0
+ L_F0=0E6
+ PkZ=14591.3414
.ends DO3316T-183_imp

*======================================================================
* SPICE Model generated by Coilcraft
* Coilcraft Part Number : DO3316T-223
* Inductance = 22uH
*======================================================================
* Model Parameters:
*   Valid Frequency Range = 0.1MHz-30MHz
*   Ambient Temperature = 25 degC
*   Inductor Frequency Model
*   Use model for Frequency Domain simulations
*======================================================================
.subckt DO3316T-223_freq port1 port2 PARAMS: Cpar=3.94pF Ind=22uH
X1 port1 port2 Model1A PARAMS:
+ R1=125
+ R2=0.07
+ C= {Cpar}
+ K1=0.0074
+ K2=13.8
+ K3= {Ind}
+ K4=0.92
+ K5=0.00000975
+ L=0
+ Is=0
+ a=0
+ L_Z0=0
+ L_EL=0
+ L_F0=0E6
+ PkZ=19017.172
.ends DO3316T-223_freq

*======================================================================
* SPICE Model generated by Coilcraft
* Coilcraft Part Number : DO3316T-223
* Inductance = 22uH
*======================================================================
* Model Parameters:
*   Valid Frequency Range = 0.1MHz-30MHz
*   Ambient Temperature = 25 degC
*   Inductor Impedance Model
*   Use model for Time Domain simulations
*======================================================================
.subckt DO3316T-223_imp port1 port2 PARAMS: Cpar=3.10pF Ind=22uH
X1 port1 port2 Model1D PARAMS:
+ R1=125
+ R2=0.07
+ C= {Cpar}
+ K1=0.0074
+ K2=13.8
+ K3= {Ind}
+ K4=0.92
+ K5=0.00000975
+ L=0
+ Is=0
+ a=0
+ L_Z0=0
+ L_EL=0
+ L_F0=0E6
+ PkZ=19017.172
.ends DO3316T-223_imp

*======================================================================
* SPICE Model generated by Coilcraft
* Coilcraft Part Number : DO3316T-273
* Inductance = 27uH
*======================================================================
* Model Parameters:
*   Valid Frequency Range = 0.1MHz-20MHz
*   Ambient Temperature = 25 degC
*   Inductor Frequency Model
*   Use model for Frequency Domain simulations
*======================================================================
.subckt DO3316T-273_freq port1 port2 PARAMS: Cpar=4.57pF Ind=27uH
X1 port1 port2 Model1A PARAMS:
+ R1=100
+ R2=0.085
+ C= {Cpar}
+ K1=0.00982
+ K2=19.2
+ K3= {Ind}
+ K4=1.18
+ K5=0.00000978
+ L=0
+ Is=0
+ a=0
+ L_Z0=0
+ L_EL=0
+ L_F0=0E6
+ PkZ=23084.5987
.ends DO3316T-273_freq

*======================================================================
* SPICE Model generated by Coilcraft
* Coilcraft Part Number : DO3316T-273
* Inductance = 27uH
*======================================================================
* Model Parameters:
*   Valid Frequency Range = 0.1MHz-20MHz
*   Ambient Temperature = 25 degC
*   Inductor Impedance Model
*   Use model for Time Domain simulations
*======================================================================
.subckt DO3316T-273_imp port1 port2 PARAMS: Cpar=3.58pF Ind=27uH
X1 port1 port2 Model1D PARAMS:
+ R1=100
+ R2=0.085
+ C= {Cpar}
+ K1=0.00982
+ K2=19.2
+ K3= {Ind}
+ K4=1.18
+ K5=0.00000978
+ L=0
+ Is=0
+ a=0
+ L_Z0=0
+ L_EL=0
+ L_F0=0E6
+ PkZ=23084.5987
.ends DO3316T-273_imp

*======================================================================
* SPICE Model generated by Coilcraft
* Coilcraft Part Number : DO3316T-333
* Inductance = 33uH
*======================================================================
* Model Parameters:
*   Valid Frequency Range = 0.1MHz-20MHz
*   Ambient Temperature = 25 degC
*   Inductor Frequency Model
*   Use model for Frequency Domain simulations
*======================================================================
.subckt DO3316T-333_freq port1 port2 PARAMS: Cpar=3.37pF Ind=33uH
X1 port1 port2 Model1A PARAMS:
+ R1=115
+ R2=0.1
+ C= {Cpar}
+ K1=0.0098
+ K2=21.2
+ K3= {Ind}
+ K4=1.44
+ K5=0.0000098
+ L=0
+ Is=0
+ a=0
+ L_Z0=0
+ L_EL=0
+ L_F0=0E6
+ PkZ=31333.2505
.ends DO3316T-333_freq

*======================================================================
* SPICE Model generated by Coilcraft
* Coilcraft Part Number : DO3316T-333
* Inductance = 33uH
*======================================================================
* Model Parameters:
*   Valid Frequency Range = 0.1MHz-20MHz
*   Ambient Temperature = 25 degC
*   Inductor Impedance Model
*   Use model for Time Domain simulations
*======================================================================
.subckt DO3316T-333_imp port1 port2 PARAMS: Cpar=2.64pF Ind=33uH
X1 port1 port2 Model1D PARAMS:
+ R1=115
+ R2=0.1
+ C= {Cpar}
+ K1=0.0098
+ K2=21.2
+ K3= {Ind}
+ K4=1.44
+ K5=0.0000098
+ L=0
+ Is=0
+ a=0
+ L_Z0=0
+ L_EL=0
+ L_F0=0E6
+ PkZ=31333.2505
.ends DO3316T-333_imp
