*======================================================================
* SPICE Model generated by Coilcraft
* Coilcraft Part Number : EPL3015-221
* Inductance = 0.22uH
*======================================================================
* Model Parameters:
*   Valid Frequency Range = 0.1MHz-200MHz
*   Ambient Temperature = 25 degC
*   Inductor Frequency Model
*   Use model for Frequency Domain simulations
*======================================================================
.subckt EPL3015-221_freq port1 port2 PARAMS: Cpar=0.86pF Ind=0.22uH
X1 port1 port2 Model1A PARAMS:
+ R1=200
+ R2=0.032
+ C= {Cpar}
+ K1=0.00003
+ K2=0.05
+ K3= {Ind}
+ K4=0.001
+ K5=0.00009
+ L=0
+ Is=0
+ a=0
+ L_Z0=0
+ L_EL=0
+ L_F0=0E6
+ PkZ=567.053541
.ends EPL3015-221_freq

*======================================================================
* SPICE Model generated by Coilcraft
* Coilcraft Part Number : EPL3015-221
* Inductance = 0.22uH
*======================================================================
* Model Parameters:
*   Valid Frequency Range = 0.1MHz-200MHz
*   Ambient Temperature = 25 degC
*   Inductor Impedance Model
*   Use model for Time Domain simulations
*======================================================================
.subckt EPL3015-221_imp port1 port2 PARAMS: Cpar=0.82pF Ind=0.22uH
X1 port1 port2 Model1D PARAMS:
+ R1=200
+ R2=0.032
+ C= {Cpar}
+ K1=0.00003
+ K2=0.05
+ K3= {Ind}
+ K4=0.001
+ K5=0.00009
+ L=0
+ Is=0
+ a=0
+ L_Z0=0
+ L_EL=0
+ L_F0=0E6
+ PkZ=567.053541
.ends EPL3015-221_imp

*======================================================================
* SPICE Model generated by Coilcraft
* Coilcraft Part Number : EPL3015-401
* Inductance = 0.4uH
*======================================================================
* Model Parameters:
*   Valid Frequency Range = 0.1MHz-100MHz
*   Ambient Temperature = 25 degC
*   Inductor Frequency Model
*   Use model for Frequency Domain simulations
*======================================================================
.subckt EPL3015-401_freq port1 port2 PARAMS: Cpar=0.99pF Ind=0.4uH
X1 port1 port2 Model1A PARAMS:
+ R1=180
+ R2=0.037
+ C= {Cpar}
+ K1=0.00005
+ K2=0.09
+ K3= {Ind}
+ K4=0.002
+ K5=0.000009
+ L=0
+ Is=0
+ a=0
+ L_Z0=0
+ L_EL=0
+ L_F0=0E6
+ PkZ=886.233105
.ends EPL3015-401_freq

*======================================================================
* SPICE Model generated by Coilcraft
* Coilcraft Part Number : EPL3015-401
* Inductance = 0.4uH
*======================================================================
* Model Parameters:
*   Valid Frequency Range = 0.1MHz-100MHz
*   Ambient Temperature = 25 degC
*   Inductor Impedance Model
*   Use model for Time Domain simulations
*======================================================================
.subckt EPL3015-401_imp port1 port2 PARAMS: Cpar=0.95pF Ind=0.4uH
X1 port1 port2 Model1D PARAMS:
+ R1=180
+ R2=0.037
+ C= {Cpar}
+ K1=0.00005
+ K2=0.09
+ K3= {Ind}
+ K4=0.002
+ K5=0.000009
+ L=0
+ Is=0
+ a=0
+ L_Z0=0
+ L_EL=0
+ L_F0=0E6
+ PkZ=886.233105
.ends EPL3015-401_imp

*======================================================================
* SPICE Model generated by Coilcraft
* Coilcraft Part Number : EPL3015-601
* Inductance = 0.6uH
*======================================================================
* Model Parameters:
*   Valid Frequency Range = 0.1MHz-100MHz
*   Ambient Temperature = 25 degC
*   Inductor Frequency Model
*   Use model for Frequency Domain simulations
*======================================================================
.subckt EPL3015-601_freq port1 port2 PARAMS: Cpar=1.78pF Ind=0.6uH
X1 port1 port2 Model1A PARAMS:
+ R1=90
+ R2=0.042
+ C= {Cpar}
+ K1=0.0001
+ K2=0.15
+ K3= {Ind}
+ K4=0.004
+ K5=0.000009
+ L=0
+ Is=0
+ a=0
+ L_Z0=0
+ L_EL=0
+ L_F0=0E6
+ PkZ=1235.62811
.ends EPL3015-601_freq

*======================================================================
* SPICE Model generated by Coilcraft
* Coilcraft Part Number : EPL3015-601
* Inductance = 0.6uH
*======================================================================
* Model Parameters:
*   Valid Frequency Range = 0.1MHz-100MHz
*   Ambient Temperature = 25 degC
*   Inductor Impedance Model
*   Use model for Time Domain simulations
*======================================================================
.subckt EPL3015-601_imp port1 port2 PARAMS: Cpar=1.69pF Ind=0.6uH
X1 port1 port2 Model1D PARAMS:
+ R1=90
+ R2=0.042
+ C= {Cpar}
+ K1=0.0001
+ K2=0.15
+ K3= {Ind}
+ K4=0.004
+ K5=0.000009
+ L=0
+ Is=0
+ a=0
+ L_Z0=0
+ L_EL=0
+ L_F0=0E6
+ PkZ=1235.62811
.ends EPL3015-601_imp

*======================================================================
* SPICE Model generated by Coilcraft
* Coilcraft Part Number : EPL3015-102
* Inductance = 1uH
*======================================================================
* Model Parameters:
*   Valid Frequency Range = 0.1MHz-100MHz
*   Ambient Temperature = 25 degC
*   Inductor Frequency Model
*   Use model for Frequency Domain simulations
*======================================================================
.subckt EPL3015-102_freq port1 port2 PARAMS: Cpar=1.94pF Ind=1uH
X1 port1 port2 Model1A PARAMS:
+ R1=80
+ R2=0.048
+ C= {Cpar}
+ K1=0.00005
+ K2=0.21
+ K3= {Ind}
+ K4=0.006
+ K5=0.000009
+ L=0
+ Is=0
+ a=0
+ L_Z0=0
+ L_EL=0
+ L_F0=0E6
+ PkZ=1661.15969
.ends EPL3015-102_freq

*======================================================================
* SPICE Model generated by Coilcraft
* Coilcraft Part Number : EPL3015-102
* Inductance = 1uH
*======================================================================
* Model Parameters:
*   Valid Frequency Range = 0.1MHz-100MHz
*   Ambient Temperature = 25 degC
*   Inductor Impedance Model
*   Use model for Time Domain simulations
*======================================================================
.subckt EPL3015-102_imp port1 port2 PARAMS: Cpar=1.86pF Ind=1uH
X1 port1 port2 Model1D PARAMS:
+ R1=80
+ R2=0.048
+ C= {Cpar}
+ K1=0.00005
+ K2=0.21
+ K3= {Ind}
+ K4=0.006
+ K5=0.000009
+ L=0
+ Is=0
+ a=0
+ L_Z0=0
+ L_EL=0
+ L_F0=0E6
+ PkZ=1661.15969
.ends EPL3015-102_imp

*======================================================================
* SPICE Model generated by Coilcraft
* Coilcraft Part Number : EPL3015-122
* Inductance = 1.2uH
*======================================================================
* Model Parameters:
*   Valid Frequency Range = 0.1MHz-100MHz
*   Ambient Temperature = 25 degC
*   Inductor Frequency Model
*   Use model for Frequency Domain simulations
*======================================================================
.subckt EPL3015-122_freq port1 port2 PARAMS: Cpar=2.26pF Ind=1.2uH
X1 port1 port2 Model1A PARAMS:
+ R1=80
+ R2=0.054
+ C= {Cpar}
+ K1=0.000001
+ K2=0.25
+ K3= {Ind}
+ K4=0.008
+ K5=0.0000095
+ L=1.239E-06
+ Is=3.47756188
+ a=0.86946607
+ L_Z0=0
+ L_EL=0
+ L_F0=0E6
+ PkZ=1791.02225
.ends EPL3015-122_freq

*======================================================================
* SPICE Model generated by Coilcraft
* Coilcraft Part Number : EPL3015-122
* Inductance = 1.2uH
*======================================================================
* Model Parameters:
*   Valid Frequency Range = 0.1MHz-100MHz
*   Ambient Temperature = 25 degC
*   Inductor Saturation Model
*   Use model for Time Domain simulations
*======================================================================
.subckt EPL3015-122_sat port1 port2 PARAMS: Cpar=2.16pF Ind=1.2uH
X1 port1 port2 Model1C PARAMS:
+ R1=80
+ R2=0.054
+ C= {Cpar}
+ K1=0.000001
+ K2=0.25
+ K3= {Ind}
+ K4=0.008
+ K5=0.0000095
+ L=1.239E-06
+ Is=3.47756188
+ a=0.86946607
+ L_Z0=0
+ L_EL=0
+ L_F0=0E6
+ PkZ=1791.02225
.ends EPL3015-122_sat

*======================================================================
* SPICE Model generated by Coilcraft
* Coilcraft Part Number : EPL3015-152
* Inductance = 1.5uH
*======================================================================
* Model Parameters:
*   Valid Frequency Range = 0.1MHz-100MHz
*   Ambient Temperature = 25 degC
*   Inductor Frequency Model
*   Use model for Frequency Domain simulations
*======================================================================
.subckt EPL3015-152_freq port1 port2 PARAMS: Cpar=2.23pF Ind=1.5uH
X1 port1 port2 Model1A PARAMS:
+ R1=70
+ R2=0.062
+ C= {Cpar}
+ K1=0.000001
+ K2=0.32
+ K3= {Ind}
+ K4=0.012
+ K5=0.0000095
+ L=1.5414E-06
+ Is=3.21299622
+ a=0.88293656
+ L_Z0=0
+ L_EL=0
+ L_F0=0E6
+ PkZ=2274.52893
.ends EPL3015-152_freq

*======================================================================
* SPICE Model generated by Coilcraft
* Coilcraft Part Number : EPL3015-152
* Inductance = 1.5uH
*======================================================================
* Model Parameters:
*   Valid Frequency Range = 0.1MHz-100MHz
*   Ambient Temperature = 25 degC
*   Inductor Saturation Model
*   Use model for Time Domain simulations
*======================================================================
.subckt EPL3015-152_sat port1 port2 PARAMS: Cpar=2.11pF Ind=1.5uH
X1 port1 port2 Model1C PARAMS:
+ R1=70
+ R2=0.062
+ C= {Cpar}
+ K1=0.000001
+ K2=0.32
+ K3= {Ind}
+ K4=0.012
+ K5=0.0000095
+ L=1.5414E-06
+ Is=3.21299622
+ a=0.88293656
+ L_Z0=0
+ L_EL=0
+ L_F0=0E6
+ PkZ=2274.52893
.ends EPL3015-152_sat

*======================================================================
* SPICE Model generated by Coilcraft
* Coilcraft Part Number : EPL3015-222
* Inductance = 2.2uH
*======================================================================
* Model Parameters:
*   Valid Frequency Range = 0.1MHz-100MHz
*   Ambient Temperature = 25 degC
*   Inductor Frequency Model
*   Use model for Frequency Domain simulations
*======================================================================
.subckt EPL3015-222_freq port1 port2 PARAMS: Cpar=2.05pF Ind=2.2uH
X1 port1 port2 Model1A PARAMS:
+ R1=100
+ R2=0.082
+ C= {Cpar}
+ K1=0.000001
+ K2=0.48
+ K3= {Ind}
+ K4=0.024
+ K5=0.0000098
+ L=2.2426E-06
+ Is=2.98040878
+ a=0.79907551
+ L_Z0=0
+ L_EL=0
+ L_F0=0E6
+ PkZ=2978.19768
.ends EPL3015-222_freq

*======================================================================
* SPICE Model generated by Coilcraft
* Coilcraft Part Number : EPL3015-222
* Inductance = 2.2uH
*======================================================================
* Model Parameters:
*   Valid Frequency Range = 0.1MHz-100MHz
*   Ambient Temperature = 25 degC
*   Inductor Saturation Model
*   Use model for Time Domain simulations
*======================================================================
.subckt EPL3015-222_sat port1 port2 PARAMS: Cpar=1.90pF Ind=2.2uH
X1 port1 port2 Model1C PARAMS:
+ R1=100
+ R2=0.082
+ C= {Cpar}
+ K1=0.000001
+ K2=0.48
+ K3= {Ind}
+ K4=0.024
+ K5=0.0000098
+ L=2.2426E-06
+ Is=2.98040878
+ a=0.79907551
+ L_Z0=0
+ L_EL=0
+ L_F0=0E6
+ PkZ=2978.19768
.ends EPL3015-222_sat

*======================================================================
* SPICE Model generated by Coilcraft
* Coilcraft Part Number : EPL3015-332
* Inductance = 3.3uH
*======================================================================
* Model Parameters:
*   Valid Frequency Range = 0.1MHz-100MHz
*   Ambient Temperature = 25 degC
*   Inductor Frequency Model
*   Use model for Frequency Domain simulations
*======================================================================
.subckt EPL3015-332_freq port1 port2 PARAMS: Cpar=2.73pF Ind=3.3uH
X1 port1 port2 Model1A PARAMS:
+ R1=50
+ R2=0.108
+ C= {Cpar}
+ K1=0.000001
+ K2=0.78
+ K3= {Ind}
+ K4=0.044
+ K5=0.0000099
+ L=3.3182E-06
+ Is=2.28587288
+ a=1.00451288
+ L_Z0=0
+ L_EL=0
+ L_F0=0E6
+ PkZ=4601.62103
.ends EPL3015-332_freq

*======================================================================
* SPICE Model generated by Coilcraft
* Coilcraft Part Number : EPL3015-332
* Inductance = 3.3uH
*======================================================================
* Model Parameters:
*   Valid Frequency Range = 0.1MHz-100MHz
*   Ambient Temperature = 25 degC
*   Inductor Saturation Model
*   Use model for Time Domain simulations
*======================================================================
.subckt EPL3015-332_sat port1 port2 PARAMS: Cpar=2.50pF Ind=3.3uH
X1 port1 port2 Model1C PARAMS:
+ R1=50
+ R2=0.108
+ C= {Cpar}
+ K1=0.000001
+ K2=0.78
+ K3= {Ind}
+ K4=0.044
+ K5=0.0000099
+ L=3.3182E-06
+ Is=2.28587288
+ a=1.00451288
+ L_Z0=0
+ L_EL=0
+ L_F0=0E6
+ PkZ=4601.62103
.ends EPL3015-332_sat

*======================================================================
* SPICE Model generated by Coilcraft
* Coilcraft Part Number : EPL3015-472
* Inductance = 4.7uH
*======================================================================
* Model Parameters:
*   Valid Frequency Range = 0.1MHz-100MHz
*   Ambient Temperature = 25 degC
*   Inductor Frequency Model
*   Use model for Frequency Domain simulations
*======================================================================
.subckt EPL3015-472_freq port1 port2 PARAMS: Cpar=3.31pF Ind=4.7uH
X1 port1 port2 Model1A PARAMS:
+ R1=25
+ R2=0.145
+ C= {Cpar}
+ K1=0.000001
+ K2=1.03
+ K3= {Ind}
+ K4=0.053
+ K5=0.0000099
+ L=4.9058E-06
+ Is=1.8437319
+ a=0.96343024
+ L_Z0=0
+ L_EL=0
+ L_F0=0E6
+ PkZ=5914.87276
.ends EPL3015-472_freq

*======================================================================
* SPICE Model generated by Coilcraft
* Coilcraft Part Number : EPL3015-472
* Inductance = 4.7uH
*======================================================================
* Model Parameters:
*   Valid Frequency Range = 0.1MHz-100MHz
*   Ambient Temperature = 25 degC
*   Inductor Saturation Model
*   Use model for Time Domain simulations
*======================================================================
.subckt EPL3015-472_sat port1 port2 PARAMS: Cpar=3.09pF Ind=4.7uH
X1 port1 port2 Model1C PARAMS:
+ R1=25
+ R2=0.145
+ C= {Cpar}
+ K1=0.000001
+ K2=1.03
+ K3= {Ind}
+ K4=0.053
+ K5=0.0000099
+ L=4.9058E-06
+ Is=1.8437319
+ a=0.96343024
+ L_Z0=0
+ L_EL=0
+ L_F0=0E6
+ PkZ=5914.87276
.ends EPL3015-472_sat

*======================================================================
* SPICE Model generated by Coilcraft
* Coilcraft Part Number : EPL3015-562
* Inductance = 5.6uH
*======================================================================
* Model Parameters:
*   Valid Frequency Range = 0.1MHz-90MHz
*   Ambient Temperature = 25 degC
*   Inductor Frequency Model
*   Use model for Frequency Domain simulations
*======================================================================
.subckt EPL3015-562_freq port1 port2 PARAMS: Cpar=3.09pF Ind=5.6uH
X1 port1 port2 Model1A PARAMS:
+ R1=15
+ R2=0.165
+ C= {Cpar}
+ K1=0.000001
+ K2=1.38
+ K3= {Ind}
+ K4=0.069
+ K5=0.0000099
+ L=0
+ Is=0
+ a=0
+ L_Z0=0
+ L_EL=0
+ L_F0=0E6
+ PkZ=8072.42103
.ends EPL3015-562_freq

*======================================================================
* SPICE Model generated by Coilcraft
* Coilcraft Part Number : EPL3015-562
* Inductance = 5.6uH
*======================================================================
* Model Parameters:
*   Valid Frequency Range = 0.1MHz-90MHz
*   Ambient Temperature = 25 degC
*   Inductor Impedance Model
*   Use model for Time Domain simulations
*======================================================================
.subckt EPL3015-562_imp port1 port2 PARAMS: Cpar=2.86pF Ind=5.6uH
X1 port1 port2 Model1D PARAMS:
+ R1=15
+ R2=0.165
+ C= {Cpar}
+ K1=0.000001
+ K2=1.38
+ K3= {Ind}
+ K4=0.069
+ K5=0.0000099
+ L=0
+ Is=0
+ a=0
+ L_Z0=0
+ L_EL=0
+ L_F0=0E6
+ PkZ=8072.42103
.ends EPL3015-562_imp

*======================================================================
* SPICE Model generated by Coilcraft
* Coilcraft Part Number : EPL3015-682
* Inductance = 6.8uH
*======================================================================
* Model Parameters:
*   Valid Frequency Range = 0.1MHz-80MHz
*   Ambient Temperature = 25 degC
*   Inductor Frequency Model
*   Use model for Frequency Domain simulations
*======================================================================
.subckt EPL3015-682_freq port1 port2 PARAMS: Cpar=2.85pF Ind=6.8uH
X1 port1 port2 Model1A PARAMS:
+ R1=12
+ R2=0.194
+ C= {Cpar}
+ K1=0.000001
+ K2=1.53
+ K3= {Ind}
+ K4=0.087
+ K5=0.0000099
+ L=7.3182E-06
+ Is=1.7758113
+ a=0.62603217
+ L_Z0=0
+ L_EL=0
+ L_F0=0E6
+ PkZ=8925.67732
.ends EPL3015-682_freq

*======================================================================
* SPICE Model generated by Coilcraft
* Coilcraft Part Number : EPL3015-682
* Inductance = 6.8uH
*======================================================================
* Model Parameters:
*   Valid Frequency Range = 0.1MHz-80MHz
*   Ambient Temperature = 25 degC
*   Inductor Saturation Model
*   Use model for Time Domain simulations
*======================================================================
.subckt EPL3015-682_sat port1 port2 PARAMS: Cpar=2.64pF Ind=6.8uH
X1 port1 port2 Model1C PARAMS:
+ R1=12
+ R2=0.194
+ C= {Cpar}
+ K1=0.000001
+ K2=1.53
+ K3= {Ind}
+ K4=0.087
+ K5=0.0000099
+ L=7.3182E-06
+ Is=1.7758113
+ a=0.62603217
+ L_Z0=0
+ L_EL=0
+ L_F0=0E6
+ PkZ=8925.67732
.ends EPL3015-682_sat

*======================================================================
* SPICE Model generated by Coilcraft
* Coilcraft Part Number : EPL3015-822
* Inductance = 8.2uH
*======================================================================
* Model Parameters:
*   Valid Frequency Range = 0.1MHz-80MHz
*   Ambient Temperature = 25 degC
*   Inductor Frequency Model
*   Use model for Frequency Domain simulations
*======================================================================
.subckt EPL3015-822_freq port1 port2 PARAMS: Cpar=3.45pF Ind=8.2uH
X1 port1 port2 Model1A PARAMS:
+ R1=15
+ R2=0.262
+ C= {Cpar}
+ K1=0.000001
+ K2=1.86
+ K3= {Ind}
+ K4=0.092
+ K5=0.0000099
+ L=0
+ Is=0
+ a=0
+ L_Z0=0
+ L_EL=0
+ L_F0=0E6
+ PkZ=9669.53593
.ends EPL3015-822_freq

*======================================================================
* SPICE Model generated by Coilcraft
* Coilcraft Part Number : EPL3015-822
* Inductance = 8.2uH
*======================================================================
* Model Parameters:
*   Valid Frequency Range = 0.1MHz-80MHz
*   Ambient Temperature = 25 degC
*   Inductor Impedance Model
*   Use model for Time Domain simulations
*======================================================================
.subckt EPL3015-822_imp port1 port2 PARAMS: Cpar=3.23pF Ind=8.2uH
X1 port1 port2 Model1D PARAMS:
+ R1=15
+ R2=0.262
+ C= {Cpar}
+ K1=0.000001
+ K2=1.86
+ K3= {Ind}
+ K4=0.092
+ K5=0.0000099
+ L=0
+ Is=0
+ a=0
+ L_Z0=0
+ L_EL=0
+ L_F0=0E6
+ PkZ=9669.53593
.ends EPL3015-822_imp

*======================================================================
* SPICE Model generated by Coilcraft
* Coilcraft Part Number : EPL3015-103
* Inductance = 10uH
*======================================================================
* Model Parameters:
*   Valid Frequency Range = 0.1MHz-60MHz
*   Ambient Temperature = 25 degC
*   Inductor Frequency Model
*   Use model for Frequency Domain simulations
*======================================================================
.subckt EPL3015-103_freq port1 port2 PARAMS: Cpar=3.07pF Ind=10uH
X1 port1 port2 Model1A PARAMS:
+ R1=25
+ R2=0.301
+ C= {Cpar}
+ K1=0.000001
+ K2=2.42
+ K3= {Ind}
+ K4=0.118
+ K5=0.00000995
+ L=1.0222E-05
+ Is=1.66100461
+ a=0.70331976
+ L_Z0=0
+ L_EL=0
+ L_F0=0E6
+ PkZ=11904.2455
.ends EPL3015-103_freq

*======================================================================
* SPICE Model generated by Coilcraft
* Coilcraft Part Number : EPL3015-103
* Inductance = 10uH
*======================================================================
* Model Parameters:
*   Valid Frequency Range = 0.1MHz-60MHz
*   Ambient Temperature = 25 degC
*   Inductor Saturation Model
*   Use model for Time Domain simulations
*======================================================================
.subckt EPL3015-103_sat port1 port2 PARAMS: Cpar=2.87pF Ind=10uH
X1 port1 port2 Model1C PARAMS:
+ R1=25
+ R2=0.301
+ C= {Cpar}
+ K1=0.000001
+ K2=2.42
+ K3= {Ind}
+ K4=0.118
+ K5=0.00000995
+ L=1.0222E-05
+ Is=1.66100461
+ a=0.70331976
+ L_Z0=0
+ L_EL=0
+ L_F0=0E6
+ PkZ=11904.2455
.ends EPL3015-103_sat

*======================================================================
* SPICE Model generated by Coilcraft
* Coilcraft Part Number : EPL3015-153
* Inductance = 15uH
*======================================================================
* Model Parameters:
*   Valid Frequency Range = 0.1MHz-50MHz
*   Ambient Temperature = 25 degC
*   Inductor Frequency Model
*   Use model for Frequency Domain simulations
*======================================================================
.subckt EPL3015-153_freq port1 port2 PARAMS: Cpar=3.53pF Ind=15uH
X1 port1 port2 Model1A PARAMS:
+ R1=35
+ R2=0.463
+ C= {Cpar}
+ K1=0.000001
+ K2=3.59
+ K3= {Ind}
+ K4=0.142
+ K5=0.00000995
+ L=1.4403E-05
+ Is=1.32984806
+ a=0.74593315
+ L_Z0=0
+ L_EL=0
+ L_F0=0E6
+ PkZ=14822.8898
.ends EPL3015-153_freq

*======================================================================
* SPICE Model generated by Coilcraft
* Coilcraft Part Number : EPL3015-153
* Inductance = 15uH
*======================================================================
* Model Parameters:
*   Valid Frequency Range = 0.1MHz-50MHz
*   Ambient Temperature = 25 degC
*   Inductor Saturation Model
*   Use model for Time Domain simulations
*======================================================================
.subckt EPL3015-153_sat port1 port2 PARAMS: Cpar=3.35pF Ind=15uH
X1 port1 port2 Model1C PARAMS:
+ R1=35
+ R2=0.463
+ C= {Cpar}
+ K1=0.000001
+ K2=3.59
+ K3= {Ind}
+ K4=0.142
+ K5=0.00000995
+ L=1.4403E-05
+ Is=1.32984806
+ a=0.74593315
+ L_Z0=0
+ L_EL=0
+ L_F0=0E6
+ PkZ=14822.8898
.ends EPL3015-153_sat

*======================================================================
* SPICE Model generated by Coilcraft
* Coilcraft Part Number : EPL3015-223
* Inductance = 22uH
*======================================================================
* Model Parameters:
*   Valid Frequency Range = 0.1MHz-40MHz
*   Ambient Temperature = 25 degC
*   Inductor Frequency Model
*   Use model for Frequency Domain simulations
*======================================================================
.subckt EPL3015-223_freq port1 port2 PARAMS: Cpar=2.76pF Ind=22uH
X1 port1 port2 Model1A PARAMS:
+ R1=50
+ R2=0.563
+ C= {Cpar}
+ K1=0.000001
+ K2=5.85
+ K3= {Ind}
+ K4=0.188
+ K5=0.00000995
+ L=2.3806E-05
+ Is=0.91525771
+ a=0.74809724
+ L_Z0=0
+ L_EL=0
+ L_F0=0E6
+ PkZ=22750.0484
.ends EPL3015-223_freq

*======================================================================
* SPICE Model generated by Coilcraft
* Coilcraft Part Number : EPL3015-223
* Inductance = 22uH
*======================================================================
* Model Parameters:
*   Valid Frequency Range = 0.1MHz-40MHz
*   Ambient Temperature = 25 degC
*   Inductor Saturation Model
*   Use model for Time Domain simulations
*======================================================================
.subckt EPL3015-223_sat port1 port2 PARAMS: Cpar=2.63pF Ind=22uH
X1 port1 port2 Model1C PARAMS:
+ R1=50
+ R2=0.563
+ C= {Cpar}
+ K1=0.000001
+ K2=5.85
+ K3= {Ind}
+ K4=0.188
+ K5=0.00000995
+ L=2.3806E-05
+ Is=0.91525771
+ a=0.74809724
+ L_Z0=0
+ L_EL=0
+ L_F0=0E6
+ PkZ=22750.0484
.ends EPL3015-223_sat

*======================================================================
* SPICE Model generated by Coilcraft
* Coilcraft Part Number : EPL3015-333
* Inductance = 33uH
*======================================================================
* Model Parameters:
*   Valid Frequency Range = 0.1MHz-30MHz
*   Ambient Temperature = 25 degC
*   Inductor Frequency Model
*   Use model for Frequency Domain simulations
*======================================================================
.subckt EPL3015-333_freq port1 port2 PARAMS: Cpar=2.98pF Ind=33uH
X1 port1 port2 Model1A PARAMS:
+ R1=100
+ R2=0.86
+ C= {Cpar}
+ K1=0.000001
+ K2=8.63
+ K3= {Ind}
+ K4=0.252
+ K5=0.00000998
+ L=3.5722E-05
+ Is=0.83651579
+ a=0.68586717
+ L_Z0=0
+ L_EL=0
+ L_F0=0E6
+ PkZ=26297.7818
.ends EPL3015-333_freq

*======================================================================
* SPICE Model generated by Coilcraft
* Coilcraft Part Number : EPL3015-333
* Inductance = 33uH
*======================================================================
* Model Parameters:
*   Valid Frequency Range = 0.1MHz-30MHz
*   Ambient Temperature = 25 degC
*   Inductor Saturation Model
*   Use model for Time Domain simulations
*======================================================================
.subckt EPL3015-333_sat port1 port2 PARAMS: Cpar=2.86pF Ind=33uH
X1 port1 port2 Model1C PARAMS:
+ R1=100
+ R2=0.86
+ C= {Cpar}
+ K1=0.000001
+ K2=8.63
+ K3= {Ind}
+ K4=0.252
+ K5=0.00000998
+ L=3.5722E-05
+ Is=0.83651579
+ a=0.68586717
+ L_Z0=0
+ L_EL=0
+ L_F0=0E6
+ PkZ=26297.7818
.ends EPL3015-333_sat

*======================================================================
* SPICE Model generated by Coilcraft
* Coilcraft Part Number : EPL3015-473
* Inductance = 47uH
*======================================================================
* Model Parameters:
*   Valid Frequency Range = 0.1MHz-20MHz
*   Ambient Temperature = 25 degC
*   Inductor Frequency Model
*   Use model for Frequency Domain simulations
*======================================================================
.subckt EPL3015-473_freq port1 port2 PARAMS: Cpar=3.53pF Ind=47uH
X1 port1 port2 Model1A PARAMS:
+ R1=140
+ R2=1.136
+ C= {Cpar}
+ K1=0.000001
+ K2=10.32
+ K3= {Ind}
+ K4=0.347
+ K5=0.00000998
+ L=0
+ Is=0
+ a=0
+ L_Z0=0
+ L_EL=0
+ L_F0=0E6
+ PkZ=26174.4153
.ends EPL3015-473_freq

*======================================================================
* SPICE Model generated by Coilcraft
* Coilcraft Part Number : EPL3015-473
* Inductance = 47uH
*======================================================================
* Model Parameters:
*   Valid Frequency Range = 0.1MHz-20MHz
*   Ambient Temperature = 25 degC
*   Inductor Impedance Model
*   Use model for Time Domain simulations
*======================================================================
.subckt EPL3015-473_imp port1 port2 PARAMS: Cpar=3.40pF Ind=47uH
X1 port1 port2 Model1D PARAMS:
+ R1=140
+ R2=1.136
+ C= {Cpar}
+ K1=0.000001
+ K2=10.32
+ K3= {Ind}
+ K4=0.347
+ K5=0.00000998
+ L=0
+ Is=0
+ a=0
+ L_Z0=0
+ L_EL=0
+ L_F0=0E6
+ PkZ=26174.4153
.ends EPL3015-473_imp

*======================================================================
* SPICE Model generated by Coilcraft
* Coilcraft Saturation Inductor Model
*======================================================================
* Model Parameters:
*   Valid Frequency Range Varies by Inductor
*   Ambient Temperature = 25 degC
*   Current Saturable Inductor Model
*======================================================================
.subckt Model1C Lin Lout PARAMS:
+ R1=1
+ R2=1
+ C=1
+ L=1
+ Is=1
+ a=1
+ PkZ=94.2 * {L} *1e6
R2 N001 Lin {R2}
R3 Lout N001 {PkZ}
C1 N002 N001 {C}
R1 Lout N002 {R1}
E1 N003 N001 N004 0 1
G1 0 N004 VALUE={{L*Is}*tanh((I(E1)/{Is})**{a})**{1/a}}
L1 N004 0 1
E2 N003 Lout N005 0 1
G2 0 N005 VALUE={{L*Is}*tanh((I(E2)/{Is})**{a})**{1/a}}
L2 N005 0 1
.ends Model1C
*======================================================================
* SPICE Model generated by Coilcraft
* Coilcraft Power Inductor Model
*======================================================================
* Model Parameters:
*   Valid Frequency Range Varies by Inductor
*   Ambient Temperature = 25 degC
*   DC Bias Current = 0 A
*   Frequency Dependent Inductor Model
*======================================================================
.subckt Model1A Lin Lout PARAMS:
+ R1=1
+ R2=1
+ C=1
+ K1=1
+ K2=1
+ K3=1
+ K4=1
+ K5=1
R2 N001 Lin {R2}
R1 Lout N002 {R1}
C1 N002 N001 {C}
G_Rvar2 N001 Lout LAPLACE { V(N001, Lout) } {1/K2/(-S*S/4/PI^2)^0.25}
G_Rvar1 N001 N003 LAPLACE { V(N001, N003) } {1/K1/(-S*S/4/PI^2)^0.25}
G_Lvar N003 Lout  LAPLACE { V(N003, Lout) } {1/(S*1e-6*({K3*1e6}-({K4}*LOG({K5}*(sqrt(-S*S)/(2*pi))))))}
*This large resistance to ground has been added to prevent a floating node error
R3 N003 0 100Meg
.ends Model1A

*======================================================================
* SPICE Model generated by Coilcraft
* Coilcraft Impedance Inductor Model
*======================================================================
* Model Parameters:
*   Valid Frequency Range Varies by Inductor
*   Ambient Temperature = 25 degC
*   Time Domain Inductor Impedance Model
*======================================================================
.subckt Model1D Lin Lout PARAMS:
+ R1=1
+ R2=1
+ C=1
+ K3=1
+ PkZ=1
R2 Lin N001 {R2}
R3 N001 Lout {PkZ}
C1 N001 N002 {C}
R1 N002 Lout {R1}
L1 N001 Lout {K3}
.ends Model1D









.subckt Coilcraft_Inductor Lin Lout
R1 Lout Lin 100Meg
.ends Coilcraft_Inductor
