*======================================================================
* SPICE Model generated by Coilcraft
* Coilcraft Part Number : LPO4815-102
* Inductance = 1uH
*======================================================================
* Model Parameters:
*   Valid Frequency Range = 0.1MHz-400MHz
*   Ambient Temperature = 25 degC
*   Inductor Frequency Model
*   Use model for Frequency Domain simulations
*======================================================================
.subckt LPO4815-102_freq port1 port2 PARAMS: Cpar=0.25pF Ind=1uH
X1 port1 port2 Model1A PARAMS:
+ R1=625
+ R2=0.036
+ C= {Cpar}
+ K1=0.000262
+ K2=0.182
+ K3= {Ind}
+ K4=0.02
+ K5=0.0000083
+ L=0
+ Is=0
+ a=0
+ L_Z0=0
+ L_EL=0
+ L_F0=0E6
+ PkZ=2144.61886
.ends LPO4815-102_freq

*======================================================================
* SPICE Model generated by Coilcraft
* Coilcraft Part Number : LPO4815-102
* Inductance = 1uH
*======================================================================
* Model Parameters:
*   Valid Frequency Range = 0.1MHz-400MHz
*   Ambient Temperature = 25 degC
*   Inductor Impedance Model
*   Use model for Time Domain simulations
*======================================================================
.subckt LPO4815-102_imp port1 port2 PARAMS: Cpar=0.21pF Ind=1uH
X1 port1 port2 Model1D PARAMS:
+ R1=625
+ R2=0.036
+ C= {Cpar}
+ K1=0.000262
+ K2=0.182
+ K3= {Ind}
+ K4=0.02
+ K5=0.0000083
+ L=0
+ Is=0
+ a=0
+ L_Z0=0
+ L_EL=0
+ L_F0=0E6
+ PkZ=2144.61886
.ends LPO4815-102_imp

*======================================================================
* SPICE Model generated by Coilcraft
* Coilcraft Part Number : LPO4815-152
* Inductance = 1.5uH
*======================================================================
* Model Parameters:
*   Valid Frequency Range = 0.1MHz-300MHz
*   Ambient Temperature = 25 degC
*   Inductor Frequency Model
*   Use model for Frequency Domain simulations
*======================================================================
.subckt LPO4815-152_freq port1 port2 PARAMS: Cpar=0.213pF Ind=1.5uH
X1 port1 port2 Model1A PARAMS:
+ R1=335
+ R2=0.085
+ C= {Cpar}
+ K1=0.00051
+ K2=0.192
+ K3= {Ind}
+ K4=0.023
+ K5=0.0000073
+ L=0
+ Is=0
+ a=0
+ L_Z0=0
+ L_EL=0
+ L_F0=0E6
+ PkZ=2814.57685
.ends LPO4815-152_freq

*======================================================================
* SPICE Model generated by Coilcraft
* Coilcraft Part Number : LPO4815-152
* Inductance = 1.5uH
*======================================================================
* Model Parameters:
*   Valid Frequency Range = 0.1MHz-300MHz
*   Ambient Temperature = 25 degC
*   Inductor Impedance Model
*   Use model for Time Domain simulations
*======================================================================
.subckt LPO4815-152_imp port1 port2 PARAMS: Cpar=0.19pF Ind=1.5uH
X1 port1 port2 Model1D PARAMS:
+ R1=335
+ R2=0.085
+ C= {Cpar}
+ K1=0.00051
+ K2=0.192
+ K3= {Ind}
+ K4=0.023
+ K5=0.0000073
+ L=0
+ Is=0
+ a=0
+ L_Z0=0
+ L_EL=0
+ L_F0=0E6
+ PkZ=2814.57685
.ends LPO4815-152_imp

*======================================================================
* SPICE Model generated by Coilcraft
* Coilcraft Part Number : LPO4815-222
* Inductance = 2.2uH
*======================================================================
* Model Parameters:
*   Valid Frequency Range = 0.1MHz-200MHz
*   Ambient Temperature = 25 degC
*   Inductor Frequency Model
*   Use model for Frequency Domain simulations
*======================================================================
.subckt LPO4815-222_freq port1 port2 PARAMS: Cpar=0.326pF Ind=2.2uH
X1 port1 port2 Model1A PARAMS:
+ R1=109
+ R2=0.088
+ C= {Cpar}
+ K1=0.000421
+ K2=0.35
+ K3= {Ind}
+ K4=0.041
+ K5=0.0000086
+ L=0
+ Is=0
+ a=0
+ L_Z0=0
+ L_EL=0
+ L_F0=0E6
+ PkZ=4533.80639
.ends LPO4815-222_freq

*======================================================================
* SPICE Model generated by Coilcraft
* Coilcraft Part Number : LPO4815-222
* Inductance = 2.2uH
*======================================================================
* Model Parameters:
*   Valid Frequency Range = 0.1MHz-200MHz
*   Ambient Temperature = 25 degC
*   Inductor Impedance Model
*   Use model for Time Domain simulations
*======================================================================
.subckt LPO4815-222_imp port1 port2 PARAMS: Cpar=0.28pF Ind=2.2uH
X1 port1 port2 Model1D PARAMS:
+ R1=109
+ R2=0.088
+ C= {Cpar}
+ K1=0.000421
+ K2=0.35
+ K3= {Ind}
+ K4=0.041
+ K5=0.0000086
+ L=0
+ Is=0
+ a=0
+ L_Z0=0
+ L_EL=0
+ L_F0=0E6
+ PkZ=4533.80639
.ends LPO4815-222_imp

*======================================================================
* SPICE Model generated by Coilcraft
* Coilcraft Part Number : LPO4815-332
* Inductance = 3.3uH
*======================================================================
* Model Parameters:
*   Valid Frequency Range = 0.1MHz-150MHz
*   Ambient Temperature = 25 degC
*   Inductor Frequency Model
*   Use model for Frequency Domain simulations
*======================================================================
.subckt LPO4815-332_freq port1 port2 PARAMS: Cpar=0.465pF Ind=3.3uH
X1 port1 port2 Model1A PARAMS:
+ R1=120
+ R2=0.12
+ C= {Cpar}
+ K1=0.000678
+ K2=0.66
+ K3= {Ind}
+ K4=0.08
+ K5=0.000009
+ L=0
+ Is=0
+ a=0
+ L_Z0=0
+ L_EL=0
+ L_F0=0E6
+ PkZ=6698.58442
.ends LPO4815-332_freq

*======================================================================
* SPICE Model generated by Coilcraft
* Coilcraft Part Number : LPO4815-332
* Inductance = 3.3uH
*======================================================================
* Model Parameters:
*   Valid Frequency Range = 0.1MHz-150MHz
*   Ambient Temperature = 25 degC
*   Inductor Impedance Model
*   Use model for Time Domain simulations
*======================================================================
.subckt LPO4815-332_imp port1 port2 PARAMS: Cpar=0.39pF Ind=3.3uH
X1 port1 port2 Model1D PARAMS:
+ R1=120
+ R2=0.12
+ C= {Cpar}
+ K1=0.000678
+ K2=0.66
+ K3= {Ind}
+ K4=0.08
+ K5=0.000009
+ L=0
+ Is=0
+ a=0
+ L_Z0=0
+ L_EL=0
+ L_F0=0E6
+ PkZ=6698.58442
.ends LPO4815-332_imp

*======================================================================
* SPICE Model generated by Coilcraft
* Coilcraft Part Number : LPO4815-392
* Inductance = 3.9uH
*======================================================================
* Model Parameters:
*   Valid Frequency Range = 0.1MHz-150MHz
*   Ambient Temperature = 25 degC
*   Inductor Frequency Model
*   Use model for Frequency Domain simulations
*======================================================================
.subckt LPO4815-392_freq port1 port2 PARAMS: Cpar=0.277pF Ind=3.9uH
X1 port1 port2 Model1A PARAMS:
+ R1=190
+ R2=0.13
+ C= {Cpar}
+ K1=0.00213
+ K2=0.674
+ K3= {Ind}
+ K4=0.086
+ K5=0.00000737
+ L=0
+ Is=0
+ a=0
+ L_Z0=0
+ L_EL=0
+ L_F0=0E6
+ PkZ=7507.25009
.ends LPO4815-392_freq

*======================================================================
* SPICE Model generated by Coilcraft
* Coilcraft Part Number : LPO4815-392
* Inductance = 3.9uH
*======================================================================
* Model Parameters:
*   Valid Frequency Range = 0.1MHz-150MHz
*   Ambient Temperature = 25 degC
*   Inductor Impedance Model
*   Use model for Time Domain simulations
*======================================================================
.subckt LPO4815-392_imp port1 port2 PARAMS: Cpar=0.23pF Ind=3.9uH
X1 port1 port2 Model1D PARAMS:
+ R1=190
+ R2=0.13
+ C= {Cpar}
+ K1=0.00213
+ K2=0.674
+ K3= {Ind}
+ K4=0.086
+ K5=0.00000737
+ L=0
+ Is=0
+ a=0
+ L_Z0=0
+ L_EL=0
+ L_F0=0E6
+ PkZ=7507.25009
.ends LPO4815-392_imp

*======================================================================
* SPICE Model generated by Coilcraft
* Coilcraft Part Number : LPO4815-472
* Inductance = 4.7uH
*======================================================================
* Model Parameters:
*   Valid Frequency Range = 0.1MHz-150MHz
*   Ambient Temperature = 25 degC
*   Inductor Frequency Model
*   Use model for Frequency Domain simulations
*======================================================================
.subckt LPO4815-472_freq port1 port2 PARAMS: Cpar=0.357pF Ind=4.7uH
X1 port1 port2 Model1A PARAMS:
+ R1=90
+ R2=0.15
+ C= {Cpar}
+ K1=0.000616
+ K2=0.797
+ K3= {Ind}
+ K4=0.088
+ K5=0.000009
+ L=0
+ Is=0
+ a=0
+ L_Z0=0
+ L_EL=0
+ L_F0=0E6
+ PkZ=8491.44389
.ends LPO4815-472_freq

*======================================================================
* SPICE Model generated by Coilcraft
* Coilcraft Part Number : LPO4815-472
* Inductance = 4.7uH
*======================================================================
* Model Parameters:
*   Valid Frequency Range = 0.1MHz-150MHz
*   Ambient Temperature = 25 degC
*   Inductor Impedance Model
*   Use model for Time Domain simulations
*======================================================================
.subckt LPO4815-472_imp port1 port2 PARAMS: Cpar=0.31pF Ind=4.7uH
X1 port1 port2 Model1D PARAMS:
+ R1=90
+ R2=0.15
+ C= {Cpar}
+ K1=0.000616
+ K2=0.797
+ K3= {Ind}
+ K4=0.088
+ K5=0.000009
+ L=0
+ Is=0
+ a=0
+ L_Z0=0
+ L_EL=0
+ L_F0=0E6
+ PkZ=8491.44389
.ends LPO4815-472_imp

*======================================================================
* SPICE Model generated by Coilcraft
* Coilcraft Part Number : LPO4815-682
* Inductance = 6.8uH
*======================================================================
* Model Parameters:
*   Valid Frequency Range = 0.1MHz-100MHz
*   Ambient Temperature = 25 degC
*   Inductor Frequency Model
*   Use model for Frequency Domain simulations
*======================================================================
.subckt LPO4815-682_freq port1 port2 PARAMS: Cpar=0.385pF Ind=6.8uH
X1 port1 port2 Model1A PARAMS:
+ R1=75
+ R2=0.18
+ C= {Cpar}
+ K1=0.000461
+ K2=1.28
+ K3= {Ind}
+ K4=0.156
+ K5=0.00000954
+ L=0
+ Is=0
+ a=0
+ L_Z0=0
+ L_EL=0
+ L_F0=0E6
+ PkZ=12370.3561
.ends LPO4815-682_freq

*======================================================================
* SPICE Model generated by Coilcraft
* Coilcraft Part Number : LPO4815-682
* Inductance = 6.8uH
*======================================================================
* Model Parameters:
*   Valid Frequency Range = 0.1MHz-100MHz
*   Ambient Temperature = 25 degC
*   Inductor Impedance Model
*   Use model for Time Domain simulations
*======================================================================
.subckt LPO4815-682_imp port1 port2 PARAMS: Cpar=0.32pF Ind=6.8uH
X1 port1 port2 Model1D PARAMS:
+ R1=75
+ R2=0.18
+ C= {Cpar}
+ K1=0.000461
+ K2=1.28
+ K3= {Ind}
+ K4=0.156
+ K5=0.00000954
+ L=0
+ Is=0
+ a=0
+ L_Z0=0
+ L_EL=0
+ L_F0=0E6
+ PkZ=12370.3561
.ends LPO4815-682_imp

*======================================================================
* SPICE Model generated by Coilcraft
* Coilcraft Part Number : LPO4815-103
* Inductance = 10uH
*======================================================================
* Model Parameters:
*   Valid Frequency Range = 0.1MHz-90MHz
*   Ambient Temperature = 25 degC
*   Inductor Frequency Model
*   Use model for Frequency Domain simulations
*======================================================================
.subckt LPO4815-103_freq port1 port2 PARAMS: Cpar=0.629pF Ind=10uH
X1 port1 port2 Model1A PARAMS:
+ R1=28
+ R2=0.23
+ C= {Cpar}
+ K1=0.000675
+ K2=1.79
+ K3= {Ind}
+ K4=0.261
+ K5=0.00000956
+ L=0
+ Is=0
+ a=0
+ L_Z0=0
+ L_EL=0
+ L_F0=0E6
+ PkZ=14380.4586
.ends LPO4815-103_freq

*======================================================================
* SPICE Model generated by Coilcraft
* Coilcraft Part Number : LPO4815-103
* Inductance = 10uH
*======================================================================
* Model Parameters:
*   Valid Frequency Range = 0.1MHz-90MHz
*   Ambient Temperature = 25 degC
*   Inductor Impedance Model
*   Use model for Time Domain simulations
*======================================================================
.subckt LPO4815-103_imp port1 port2 PARAMS: Cpar=0.52pF Ind=10uH
X1 port1 port2 Model1D PARAMS:
+ R1=28
+ R2=0.23
+ C= {Cpar}
+ K1=0.000675
+ K2=1.79
+ K3= {Ind}
+ K4=0.261
+ K5=0.00000956
+ L=0
+ Is=0
+ a=0
+ L_Z0=0
+ L_EL=0
+ L_F0=0E6
+ PkZ=14380.4586
.ends LPO4815-103_imp

*======================================================================
* SPICE Model generated by Coilcraft
* Coilcraft Part Number : LPO4815-123
* Inductance = 12uH
*======================================================================
* Model Parameters:
*   Valid Frequency Range = 0.1MHz-90MHz
*   Ambient Temperature = 25 degC
*   Inductor Frequency Model
*   Use model for Frequency Domain simulations
*======================================================================
.subckt LPO4815-123_freq port1 port2 PARAMS: Cpar=0.603pF Ind=12uH
X1 port1 port2 Model1A PARAMS:
+ R1=29
+ R2=0.31
+ C= {Cpar}
+ K1=0.000045
+ K2=2.17
+ K3= {Ind}
+ K4=0.261
+ K5=0.0000098
+ L=0
+ Is=0
+ a=0
+ L_Z0=0
+ L_EL=0
+ L_F0=0E6
+ PkZ=16825.4339
.ends LPO4815-123_freq

*======================================================================
* SPICE Model generated by Coilcraft
* Coilcraft Part Number : LPO4815-123
* Inductance = 12uH
*======================================================================
* Model Parameters:
*   Valid Frequency Range = 0.1MHz-90MHz
*   Ambient Temperature = 25 degC
*   Inductor Impedance Model
*   Use model for Time Domain simulations
*======================================================================
.subckt LPO4815-123_imp port1 port2 PARAMS: Cpar=0.52pF Ind=12uH
X1 port1 port2 Model1D PARAMS:
+ R1=29
+ R2=0.31
+ C= {Cpar}
+ K1=0.000045
+ K2=2.17
+ K3= {Ind}
+ K4=0.261
+ K5=0.0000098
+ L=0
+ Is=0
+ a=0
+ L_Z0=0
+ L_EL=0
+ L_F0=0E6
+ PkZ=16825.4339
.ends LPO4815-123_imp

*======================================================================
* SPICE Model generated by Coilcraft
* Coilcraft Part Number : LPO4815-153
* Inductance = 15uH
*======================================================================
* Model Parameters:
*   Valid Frequency Range = 0.1MHz-70MHz
*   Ambient Temperature = 25 degC
*   Inductor Frequency Model
*   Use model for Frequency Domain simulations
*======================================================================
.subckt LPO4815-153_freq port1 port2 PARAMS: Cpar=0.548pF Ind=15uH
X1 port1 port2 Model1A PARAMS:
+ R1=55
+ R2=0.36
+ C= {Cpar}
+ K1=0.00071
+ K2=2.57
+ K3= {Ind}
+ K4=0.347
+ K5=0.00000961
+ L=0
+ Is=0
+ a=0
+ L_Z0=0
+ L_EL=0
+ L_F0=0E6
+ PkZ=18938.4409
.ends LPO4815-153_freq

*======================================================================
* SPICE Model generated by Coilcraft
* Coilcraft Part Number : LPO4815-153
* Inductance = 15uH
*======================================================================
* Model Parameters:
*   Valid Frequency Range = 0.1MHz-70MHz
*   Ambient Temperature = 25 degC
*   Inductor Impedance Model
*   Use model for Time Domain simulations
*======================================================================
.subckt LPO4815-153_imp port1 port2 PARAMS: Cpar=0.47pF Ind=15uH
X1 port1 port2 Model1D PARAMS:
+ R1=55
+ R2=0.36
+ C= {Cpar}
+ K1=0.00071
+ K2=2.57
+ K3= {Ind}
+ K4=0.347
+ K5=0.00000961
+ L=0
+ Is=0
+ a=0
+ L_Z0=0
+ L_EL=0
+ L_F0=0E6
+ PkZ=18938.4409
.ends LPO4815-153_imp

*======================================================================
* SPICE Model generated by Coilcraft
* Coilcraft Part Number : LPO4815-223
* Inductance = 22uH
*======================================================================
* Model Parameters:
*   Valid Frequency Range = 0.1MHz-70MHz
*   Ambient Temperature = 25 degC
*   Inductor Frequency Model
*   Use model for Frequency Domain simulations
*======================================================================
.subckt LPO4815-223_freq port1 port2 PARAMS: Cpar=0.566pF Ind=22uH
X1 port1 port2 Model1A PARAMS:
+ R1=55
+ R2=0.46
+ C= {Cpar}
+ K1=0.000364
+ K2=3.73
+ K3= {Ind}
+ K4=0.559
+ K5=0.00000976
+ L=0
+ Is=0
+ a=0
+ L_Z0=0
+ L_EL=0
+ L_F0=0E6
+ PkZ=24980.3618
.ends LPO4815-223_freq

*======================================================================
* SPICE Model generated by Coilcraft
* Coilcraft Part Number : LPO4815-223
* Inductance = 22uH
*======================================================================
* Model Parameters:
*   Valid Frequency Range = 0.1MHz-70MHz
*   Ambient Temperature = 25 degC
*   Inductor Impedance Model
*   Use model for Time Domain simulations
*======================================================================
.subckt LPO4815-223_imp port1 port2 PARAMS: Cpar=0.48pF Ind=22uH
X1 port1 port2 Model1D PARAMS:
+ R1=55
+ R2=0.46
+ C= {Cpar}
+ K1=0.000364
+ K2=3.73
+ K3= {Ind}
+ K4=0.559
+ K5=0.00000976
+ L=0
+ Is=0
+ a=0
+ L_Z0=0
+ L_EL=0
+ L_F0=0E6
+ PkZ=24980.3618
.ends LPO4815-223_imp

*======================================================================
* SPICE Model generated by Coilcraft
* Coilcraft Part Number : LPO4815-333
* Inductance = 33uH
*======================================================================
* Model Parameters:
*   Valid Frequency Range = 0.1MHz-50MHz
*   Ambient Temperature = 25 degC
*   Inductor Frequency Model
*   Use model for Frequency Domain simulations
*======================================================================
.subckt LPO4815-333_freq port1 port2 PARAMS: Cpar=0.708pF Ind=33uH
X1 port1 port2 Model1A PARAMS:
+ R1=80
+ R2=0.71
+ C= {Cpar}
+ K1=0.00105
+ K2=5.8
+ K3= {Ind}
+ K4=0.744
+ K5=0.00000968
+ L=0
+ Is=0
+ a=0
+ L_Z0=0
+ L_EL=0
+ L_F0=0E6
+ PkZ=32106.0936
.ends LPO4815-333_freq

*======================================================================
* SPICE Model generated by Coilcraft
* Coilcraft Part Number : LPO4815-333
* Inductance = 33uH
*======================================================================
* Model Parameters:
*   Valid Frequency Range = 0.1MHz-50MHz
*   Ambient Temperature = 25 degC
*   Inductor Impedance Model
*   Use model for Time Domain simulations
*======================================================================
.subckt LPO4815-333_imp port1 port2 PARAMS: Cpar=0.62pF Ind=33uH
X1 port1 port2 Model1D PARAMS:
+ R1=80
+ R2=0.71
+ C= {Cpar}
+ K1=0.00105
+ K2=5.8
+ K3= {Ind}
+ K4=0.744
+ K5=0.00000968
+ L=0
+ Is=0
+ a=0
+ L_Z0=0
+ L_EL=0
+ L_F0=0E6
+ PkZ=32106.0936
.ends LPO4815-333_imp

*======================================================================
* SPICE Model generated by Coilcraft
* Coilcraft Part Number : LPO4815-393
* Inductance = 39uH
*======================================================================
* Model Parameters:
*   Valid Frequency Range = 0.1MHz-40MHz
*   Ambient Temperature = 25 degC
*   Inductor Frequency Model
*   Use model for Frequency Domain simulations
*======================================================================
.subckt LPO4815-393_freq port1 port2 PARAMS: Cpar=0.792pF Ind=39uH
X1 port1 port2 Model1A PARAMS:
+ R1=89
+ R2=0.83
+ C= {Cpar}
+ K1=0.00105
+ K2=6.88
+ K3= {Ind}
+ K4=0.95
+ K5=0.00000972
+ L=0
+ Is=0
+ a=0
+ L_Z0=0
+ L_EL=0
+ L_F0=0E6
+ PkZ=35197.0309
.ends LPO4815-393_freq

*======================================================================
* SPICE Model generated by Coilcraft
* Coilcraft Part Number : LPO4815-393
* Inductance = 39uH
*======================================================================
* Model Parameters:
*   Valid Frequency Range = 0.1MHz-40MHz
*   Ambient Temperature = 25 degC
*   Inductor Impedance Model
*   Use model for Time Domain simulations
*======================================================================
.subckt LPO4815-393_imp port1 port2 PARAMS: Cpar=0.68pF Ind=39uH
X1 port1 port2 Model1D PARAMS:
+ R1=89
+ R2=0.83
+ C= {Cpar}
+ K1=0.00105
+ K2=6.88
+ K3= {Ind}
+ K4=0.95
+ K5=0.00000972
+ L=0
+ Is=0
+ a=0
+ L_Z0=0
+ L_EL=0
+ L_F0=0E6
+ PkZ=35197.0309
.ends LPO4815-393_imp

*======================================================================
* SPICE Model generated by Coilcraft
* Coilcraft Part Number : LPO4815-473
* Inductance = 47uH
*======================================================================
* Model Parameters:
*   Valid Frequency Range = 0.1MHz-35MHz
*   Ambient Temperature = 25 degC
*   Inductor Frequency Model
*   Use model for Frequency Domain simulations
*======================================================================
.subckt LPO4815-473_freq port1 port2 PARAMS: Cpar=0.88pF Ind=47uH
X1 port1 port2 Model1A PARAMS:
+ R1=144
+ R2=1.2
+ C= {Cpar}
+ K1=0.000741
+ K2=9.1
+ K3= {Ind}
+ K4=1.15
+ K5=0.00000978
+ L=0
+ Is=0
+ a=0
+ L_Z0=0
+ L_EL=0
+ L_F0=0E6
+ PkZ=40806.8616
.ends LPO4815-473_freq

*======================================================================
* SPICE Model generated by Coilcraft
* Coilcraft Part Number : LPO4815-473
* Inductance = 47uH
*======================================================================
* Model Parameters:
*   Valid Frequency Range = 0.1MHz-35MHz
*   Ambient Temperature = 25 degC
*   Inductor Impedance Model
*   Use model for Time Domain simulations
*======================================================================
.subckt LPO4815-473_imp port1 port2 PARAMS: Cpar=0.76pF Ind=47uH
X1 port1 port2 Model1D PARAMS:
+ R1=144
+ R2=1.2
+ C= {Cpar}
+ K1=0.000741
+ K2=9.1
+ K3= {Ind}
+ K4=1.15
+ K5=0.00000978
+ L=0
+ Is=0
+ a=0
+ L_Z0=0
+ L_EL=0
+ L_F0=0E6
+ PkZ=40806.8616
.ends LPO4815-473_imp

*======================================================================
* SPICE Model generated by Coilcraft
* Coilcraft Part Number : LPO4815-683
* Inductance = 68uH
*======================================================================
* Model Parameters:
*   Valid Frequency Range = 0.1MHz-30MHz
*   Ambient Temperature = 25 degC
*   Inductor Frequency Model
*   Use model for Frequency Domain simulations
*======================================================================
.subckt LPO4815-683_freq port1 port2 PARAMS: Cpar=0.828pF Ind=68uH
X1 port1 port2 Model1A PARAMS:
+ R1=180
+ R2=1.4
+ C= {Cpar}
+ K1=0.00972
+ K2=12.6
+ K3= {Ind}
+ K4=1.53
+ K5=0.0000093
+ L=0
+ Is=0
+ a=0
+ L_Z0=0
+ L_EL=0
+ L_F0=0E6
+ PkZ=50444.3661
.ends LPO4815-683_freq

*======================================================================
* SPICE Model generated by Coilcraft
* Coilcraft Part Number : LPO4815-683
* Inductance = 68uH
*======================================================================
* Model Parameters:
*   Valid Frequency Range = 0.1MHz-30MHz
*   Ambient Temperature = 25 degC
*   Inductor Impedance Model
*   Use model for Time Domain simulations
*======================================================================
.subckt LPO4815-683_imp port1 port2 PARAMS: Cpar=0.73pF Ind=68uH
X1 port1 port2 Model1D PARAMS:
+ R1=180
+ R2=1.4
+ C= {Cpar}
+ K1=0.00972
+ K2=12.6
+ K3= {Ind}
+ K4=1.53
+ K5=0.0000093
+ L=0
+ Is=0
+ a=0
+ L_Z0=0
+ L_EL=0
+ L_F0=0E6
+ PkZ=50444.3661
.ends LPO4815-683_imp

*======================================================================
* SPICE Model generated by Coilcraft
* Coilcraft Part Number : LPO4815-104
* Inductance = 100uH
*======================================================================
* Model Parameters:
*   Valid Frequency Range = 0.1MHz-30MHz
*   Ambient Temperature = 25 degC
*   Inductor Frequency Model
*   Use model for Frequency Domain simulations
*======================================================================
.subckt LPO4815-104_freq port1 port2 PARAMS: Cpar=0.887pF Ind=100uH
X1 port1 port2 Model1A PARAMS:
+ R1=84
+ R2=2.15
+ C= {Cpar}
+ K1=0.00347
+ K2=16.1
+ K3= {Ind}
+ K4=2.2
+ K5=0.00000972
+ L=0
+ Is=0
+ a=0
+ L_Z0=0
+ L_EL=0
+ L_F0=0E6
+ PkZ=63885.5665
.ends LPO4815-104_freq

*======================================================================
* SPICE Model generated by Coilcraft
* Coilcraft Part Number : LPO4815-104
* Inductance = 100uH
*======================================================================
* Model Parameters:
*   Valid Frequency Range = 0.1MHz-30MHz
*   Ambient Temperature = 25 degC
*   Inductor Impedance Model
*   Use model for Time Domain simulations
*======================================================================
.subckt LPO4815-104_imp port1 port2 PARAMS: Cpar=0.79pF Ind=100uH
X1 port1 port2 Model1D PARAMS:
+ R1=84
+ R2=2.15
+ C= {Cpar}
+ K1=0.00347
+ K2=16.1
+ K3= {Ind}
+ K4=2.2
+ K5=0.00000972
+ L=0
+ Is=0
+ a=0
+ L_Z0=0
+ L_EL=0
+ L_F0=0E6
+ PkZ=63885.5665
.ends LPO4815-104_imp

*======================================================================
* SPICE Model generated by Coilcraft
* Coilcraft Part Number : LPO4815-154
* Inductance = 150uH
*======================================================================
* Model Parameters:
*   Valid Frequency Range = 0.1MHz-25MHz
*   Ambient Temperature = 25 degC
*   Inductor Frequency Model
*   Use model for Frequency Domain simulations
*======================================================================
.subckt LPO4815-154_freq port1 port2 PARAMS: Cpar=1.02pF Ind=150uH
X1 port1 port2 Model1A PARAMS:
+ R1=140
+ R2=3.15
+ C= {Cpar}
+ K1=0.00415
+ K2=26
+ K3= {Ind}
+ K4=4.15
+ K5=0.00000986
+ L=0
+ Is=0
+ a=0
+ L_Z0=0
+ L_EL=0
+ L_F0=0E6
+ PkZ=86460.051
.ends LPO4815-154_freq

*======================================================================
* SPICE Model generated by Coilcraft
* Coilcraft Part Number : LPO4815-154
* Inductance = 150uH
*======================================================================
* Model Parameters:
*   Valid Frequency Range = 0.1MHz-25MHz
*   Ambient Temperature = 25 degC
*   Inductor Impedance Model
*   Use model for Time Domain simulations
*======================================================================
.subckt LPO4815-154_imp port1 port2 PARAMS: Cpar=0.88pF Ind=150uH
X1 port1 port2 Model1D PARAMS:
+ R1=140
+ R2=3.15
+ C= {Cpar}
+ K1=0.00415
+ K2=26
+ K3= {Ind}
+ K4=4.15
+ K5=0.00000986
+ L=0
+ Is=0
+ a=0
+ L_Z0=0
+ L_EL=0
+ L_F0=0E6
+ PkZ=86460.051
.ends LPO4815-154_imp

*======================================================================
* SPICE Model generated by Coilcraft
* Coilcraft Part Number : LPO4815-224
* Inductance = 220uH
*======================================================================
* Model Parameters:
*   Valid Frequency Range = 0.1MHz-25MHz
*   Ambient Temperature = 25 degC
*   Inductor Frequency Model
*   Use model for Frequency Domain simulations
*======================================================================
.subckt LPO4815-224_freq port1 port2 PARAMS: Cpar=0.999pF Ind=220uH
X1 port1 port2 Model1A PARAMS:
+ R1=134
+ R2=4.3
+ C= {Cpar}
+ K1=0.00608
+ K2=34.8
+ K3= {Ind}
+ K4=6.36
+ K5=0.00000985
+ L=0
+ Is=0
+ a=0
+ L_Z0=0
+ L_EL=0
+ L_F0=0E6
+ PkZ=107851.282
.ends LPO4815-224_freq

*======================================================================
* SPICE Model generated by Coilcraft
* Coilcraft Part Number : LPO4815-224
* Inductance = 220uH
*======================================================================
* Model Parameters:
*   Valid Frequency Range = 0.1MHz-25MHz
*   Ambient Temperature = 25 degC
*   Inductor Impedance Model
*   Use model for Time Domain simulations
*======================================================================
.subckt LPO4815-224_imp port1 port2 PARAMS: Cpar=0.86pF Ind=220uH
X1 port1 port2 Model1D PARAMS:
+ R1=134
+ R2=4.3
+ C= {Cpar}
+ K1=0.00608
+ K2=34.8
+ K3= {Ind}
+ K4=6.36
+ K5=0.00000985
+ L=0
+ Is=0
+ a=0
+ L_Z0=0
+ L_EL=0
+ L_F0=0E6
+ PkZ=107851.282
.ends LPO4815-224_imp

*======================================================================
* SPICE Model generated by Coilcraft
* Coilcraft Impedance Inductor Model
*======================================================================
* Model Parameters:
*   Valid Frequency Range Varies by Inductor
*   Ambient Temperature = 25 degC
*   Time Domain Inductor Impedance Model
*======================================================================
.subckt Model1D Lin Lout PARAMS:
+ R1=1
+ R2=1
+ C=1
+ K3=1
+ PkZ=1
R2 Lin N001 {R2}
R3 N001 Lout {PkZ}
C1 N001 N002 {C}
R1 N002 Lout {R1}
L1 N001 Lout {K3}
.ends Model1D

*======================================================================
* SPICE Model generated by Coilcraft
* Coilcraft Power Inductor Model
*======================================================================
* Model Parameters:
*   Valid Frequency Range Varies by Inductor
*   Ambient Temperature = 25 degC
*   DC Bias Current = 0 A
*   Frequency Dependent Inductor Model
*======================================================================
.subckt Model1A Lin Lout PARAMS:
+ R1=1
+ R2=1
+ C=1
+ K1=1
+ K2=1
+ K3=1
+ K4=1
+ K5=1
R2 N001 Lin {R2}
R1 Lout N002 {R1}
C1 N002 N001 {C}
G_Rvar2 N001 Lout LAPLACE { V(N001, Lout) } {1/K2/(-S*S/4/PI^2)^0.25}
G_Rvar1 N001 N003 LAPLACE { V(N001, N003) } {1/K1/(-S*S/4/PI^2)^0.25}
G_Lvar N003 Lout  LAPLACE { V(N003, Lout) } {1/(S*1e-6*({K3*1e6}-({K4}*LOG({K5}*(sqrt(-S*S)/(2*pi))))))}
*This large resistance to ground has been added to prevent a floating node error
R3 N003 0 100Meg
.ends Model1A

