*======================================================================
* SPICE Model generated by Coilcraft
* Coilcraft Part Number : LPO6610-122
* Inductance = 1.19uH
*======================================================================
* Model Parameters:
*   Valid Frequency Range = 0.1MHz-20MHz
*   Ambient Temperature = 25 degC
*   Inductor Frequency Model
*   Use model for Frequency Domain simulations
*======================================================================
.subckt LPO6610-122_freq port1 port2 PARAMS: Cpar=0.139pF Ind=1.19uH
X1 port1 port2 Model1A PARAMS:
+ R1=6200
+ R2=1.59
+ C= {Cpar}
+ K1=0.0000149
+ K2=0.268
+ K3= {Ind}
+ K4=0.014
+ K5=0.0000069
+ L=0
+ Is=0
+ a=0
+ L_Z0=0
+ L_EL=0
+ L_F0=0E6
+ PkZ=2291.82036
.ends LPO6610-122_freq

*======================================================================
* SPICE Model generated by Coilcraft
* Coilcraft Part Number : LPO6610-122
* Inductance = 1.19uH
*======================================================================
* Model Parameters:
*   Valid Frequency Range = 0.1MHz-20MHz
*   Ambient Temperature = 25 degC
*   Inductor Impedance Model
*   Use model for Time Domain simulations
*======================================================================
.subckt LPO6610-122_imp port1 port2 PARAMS: Cpar=0.13pF Ind=1.19uH
X1 port1 port2 Model1D PARAMS:
+ R1=6200
+ R2=1.59
+ C= {Cpar}
+ K1=0.0000149
+ K2=0.268
+ K3= {Ind}
+ K4=0.014
+ K5=0.0000069
+ L=0
+ Is=0
+ a=0
+ L_Z0=0
+ L_EL=0
+ L_F0=0E6
+ PkZ=2291.82036
.ends LPO6610-122_imp

*======================================================================
* SPICE Model generated by Coilcraft
* Coilcraft Part Number : LPO6610-152
* Inductance = 1.48uH
*======================================================================
* Model Parameters:
*   Valid Frequency Range = 0.1MHz-20MHz
*   Ambient Temperature = 25 degC
*   Inductor Frequency Model
*   Use model for Frequency Domain simulations
*======================================================================
.subckt LPO6610-152_freq port1 port2 PARAMS: Cpar=0.069pF Ind=1.48uH
X1 port1 port2 Model1A PARAMS:
+ R1=6200
+ R2=0.02
+ C= {Cpar}
+ K1=0.0000174
+ K2=0.356
+ K3= {Ind}
+ K4=0.0261
+ K5=0.00000201
+ L=0
+ Is=0
+ a=0
+ L_Z0=0
+ L_EL=0
+ L_F0=0E6
+ PkZ=3604.72022
.ends LPO6610-152_freq

*======================================================================
* SPICE Model generated by Coilcraft
* Coilcraft Part Number : LPO6610-152
* Inductance = 1.48uH
*======================================================================
* Model Parameters:
*   Valid Frequency Range = 0.1MHz-20MHz
*   Ambient Temperature = 25 degC
*   Inductor Impedance Model
*   Use model for Time Domain simulations
*======================================================================
.subckt LPO6610-152_imp port1 port2 PARAMS: Cpar=0.06pF Ind=1.48uH
X1 port1 port2 Model1D PARAMS:
+ R1=6200
+ R2=0.02
+ C= {Cpar}
+ K1=0.0000174
+ K2=0.356
+ K3= {Ind}
+ K4=0.0261
+ K5=0.00000201
+ L=0
+ Is=0
+ a=0
+ L_Z0=0
+ L_EL=0
+ L_F0=0E6
+ PkZ=3604.72022
.ends LPO6610-152_imp

*======================================================================
* SPICE Model generated by Coilcraft
* Coilcraft Part Number : LPO6610-222
* Inductance = 2.13uH
*======================================================================
* Model Parameters:
*   Valid Frequency Range = 0.1MHz-20MHz
*   Ambient Temperature = 25 degC
*   Inductor Frequency Model
*   Use model for Frequency Domain simulations
*======================================================================
.subckt LPO6610-222_freq port1 port2 PARAMS: Cpar=0.509pF Ind=2.13uH
X1 port1 port2 Model1A PARAMS:
+ R1=6200
+ R2=0.084
+ C= {Cpar}
+ K1=0.0000201
+ K2=0.484
+ K3= {Ind}
+ K4=0.0345
+ K5=0.00000161
+ L=0
+ Is=0
+ a=0
+ L_Z0=0
+ L_EL=0
+ L_F0=0E6
+ PkZ=1785.47182
.ends LPO6610-222_freq

*======================================================================
* SPICE Model generated by Coilcraft
* Coilcraft Part Number : LPO6610-222
* Inductance = 2.13uH
*======================================================================
* Model Parameters:
*   Valid Frequency Range = 0.1MHz-20MHz
*   Ambient Temperature = 25 degC
*   Inductor Impedance Model
*   Use model for Time Domain simulations
*======================================================================
.subckt LPO6610-222_imp port1 port2 PARAMS: Cpar=0.46pF Ind=2.13uH
X1 port1 port2 Model1D PARAMS:
+ R1=6200
+ R2=0.084
+ C= {Cpar}
+ K1=0.0000201
+ K2=0.484
+ K3= {Ind}
+ K4=0.0345
+ K5=0.00000161
+ L=0
+ Is=0
+ a=0
+ L_Z0=0
+ L_EL=0
+ L_F0=0E6
+ PkZ=1785.47182
.ends LPO6610-222_imp

*======================================================================
* SPICE Model generated by Coilcraft
* Coilcraft Part Number : LPO6610-332
* Inductance = 3.08uH
*======================================================================
* Model Parameters:
*   Valid Frequency Range = 0.1MHz-20MHz
*   Ambient Temperature = 25 degC
*   Inductor Frequency Model
*   Use model for Frequency Domain simulations
*======================================================================
.subckt LPO6610-332_freq port1 port2 PARAMS: Cpar=0.097pF Ind=3.08uH
X1 port1 port2 Model1A PARAMS:
+ R1=30000
+ R2=0.098
+ C= {Cpar}
+ K1=0.0000281
+ K2=0.611
+ K3= {Ind}
+ K4=0.0587
+ K5=4.94E-07
+ L=0
+ Is=0
+ a=0
+ L_Z0=0
+ L_EL=0
+ L_F0=0E6
+ PkZ=4536.93395
.ends LPO6610-332_freq

*======================================================================
* SPICE Model generated by Coilcraft
* Coilcraft Part Number : LPO6610-332
* Inductance = 3.08uH
*======================================================================
* Model Parameters:
*   Valid Frequency Range = 0.1MHz-20MHz
*   Ambient Temperature = 25 degC
*   Inductor Impedance Model
*   Use model for Time Domain simulations
*======================================================================
.subckt LPO6610-332_imp port1 port2 PARAMS: Cpar=0.09pF Ind=3.08uH
X1 port1 port2 Model1D PARAMS:
+ R1=30000
+ R2=0.098
+ C= {Cpar}
+ K1=0.0000281
+ K2=0.611
+ K3= {Ind}
+ K4=0.0587
+ K5=4.94E-07
+ L=0
+ Is=0
+ a=0
+ L_Z0=0
+ L_EL=0
+ L_F0=0E6
+ PkZ=4536.93395
.ends LPO6610-332_imp

*======================================================================
* SPICE Model generated by Coilcraft
* Coilcraft Part Number : LPO6610-472
* Inductance = 4.48uH
*======================================================================
* Model Parameters:
*   Valid Frequency Range = 0.1MHz-20MHz
*   Ambient Temperature = 25 degC
*   Inductor Frequency Model
*   Use model for Frequency Domain simulations
*======================================================================
.subckt LPO6610-472_freq port1 port2 PARAMS: Cpar=0.087pF Ind=4.48uH
X1 port1 port2 Model1A PARAMS:
+ R1=29800
+ R2=0.17
+ C= {Cpar}
+ K1=0.0000281
+ K2=0.942
+ K3= {Ind}
+ K4=0.0586
+ K5=3.95E-07
+ L=0
+ Is=0
+ a=0
+ L_Z0=0
+ L_EL=0
+ L_F0=0E6
+ PkZ=5968.91129
.ends LPO6610-472_freq

*======================================================================
* SPICE Model generated by Coilcraft
* Coilcraft Part Number : LPO6610-472
* Inductance = 4.48uH
*======================================================================
* Model Parameters:
*   Valid Frequency Range = 0.1MHz-20MHz
*   Ambient Temperature = 25 degC
*   Inductor Impedance Model
*   Use model for Time Domain simulations
*======================================================================
.subckt LPO6610-472_imp port1 port2 PARAMS: Cpar=0.08pF Ind=4.48uH
X1 port1 port2 Model1D PARAMS:
+ R1=29800
+ R2=0.17
+ C= {Cpar}
+ K1=0.0000281
+ K2=0.942
+ K3= {Ind}
+ K4=0.0586
+ K5=3.95E-07
+ L=0
+ Is=0
+ a=0
+ L_Z0=0
+ L_EL=0
+ L_F0=0E6
+ PkZ=5968.91129
.ends LPO6610-472_imp

*======================================================================
* SPICE Model generated by Coilcraft
* Coilcraft Part Number : LPO6610-682
* Inductance = 6.4uH
*======================================================================
* Model Parameters:
*   Valid Frequency Range = 0.1MHz-15MHz
*   Ambient Temperature = 25 degC
*   Inductor Frequency Model
*   Use model for Frequency Domain simulations
*======================================================================
.subckt LPO6610-682_freq port1 port2 PARAMS: Cpar=0.402pF Ind=6.4uH
X1 port1 port2 Model1A PARAMS:
+ R1=29800
+ R2=0.197
+ C= {Cpar}
+ K1=0.0000173
+ K2=1.15
+ K3= {Ind}
+ K4=0.117
+ K5=3.74E-07
+ L=0
+ Is=0
+ a=0
+ L_Z0=0
+ L_EL=0
+ L_F0=0E6
+ PkZ=3551.88347
.ends LPO6610-682_freq

*======================================================================
* SPICE Model generated by Coilcraft
* Coilcraft Part Number : LPO6610-682
* Inductance = 6.4uH
*======================================================================
* Model Parameters:
*   Valid Frequency Range = 0.1MHz-15MHz
*   Ambient Temperature = 25 degC
*   Inductor Impedance Model
*   Use model for Time Domain simulations
*======================================================================
.subckt LPO6610-682_imp port1 port2 PARAMS: Cpar=0.38pF Ind=6.4uH
X1 port1 port2 Model1D PARAMS:
+ R1=29800
+ R2=0.197
+ C= {Cpar}
+ K1=0.0000173
+ K2=1.15
+ K3= {Ind}
+ K4=0.117
+ K5=3.74E-07
+ L=0
+ Is=0
+ a=0
+ L_Z0=0
+ L_EL=0
+ L_F0=0E6
+ PkZ=3551.88347
.ends LPO6610-682_imp

*======================================================================
* SPICE Model generated by Coilcraft
* Coilcraft Part Number : LPO6610-103
* Inductance = 9.71uH
*======================================================================
* Model Parameters:
*   Valid Frequency Range = 0.1MHz-13MHz
*   Ambient Temperature = 25 degC
*   Inductor Frequency Model
*   Use model for Frequency Domain simulations
*======================================================================
.subckt LPO6610-103_freq port1 port2 PARAMS: Cpar=7.2pF Ind=9.71uH
X1 port1 port2 Model1A PARAMS:
+ R1=29000
+ R2=0.486
+ C= {Cpar}
+ K1=0.0000285
+ K2=2.08
+ K3= {Ind}
+ K4=0.118
+ K5=4.51E-07
+ L=0
+ Is=0
+ a=0
+ L_Z0=0
+ L_EL=0
+ L_F0=0E6
+ PkZ=1132.34946
.ends LPO6610-103_freq

*======================================================================
* SPICE Model generated by Coilcraft
* Coilcraft Part Number : LPO6610-103
* Inductance = 9.71uH
*======================================================================
* Model Parameters:
*   Valid Frequency Range = 0.1MHz-13MHz
*   Ambient Temperature = 25 degC
*   Inductor Impedance Model
*   Use model for Time Domain simulations
*======================================================================
.subckt LPO6610-103_imp port1 port2 PARAMS: Cpar=7.01pF Ind=9.71uH
X1 port1 port2 Model1D PARAMS:
+ R1=29000
+ R2=0.486
+ C= {Cpar}
+ K1=0.0000285
+ K2=2.08
+ K3= {Ind}
+ K4=0.118
+ K5=4.51E-07
+ L=0
+ Is=0
+ a=0
+ L_Z0=0
+ L_EL=0
+ L_F0=0E6
+ PkZ=1132.34946
.ends LPO6610-103_imp

*======================================================================
* SPICE Model generated by Coilcraft
* Coilcraft Part Number : LPO6610-153
* Inductance = 14.5uH
*======================================================================
* Model Parameters:
*   Valid Frequency Range = 0.1MHz-10MHz
*   Ambient Temperature = 25 degC
*   Inductor Frequency Model
*   Use model for Frequency Domain simulations
*======================================================================
.subckt LPO6610-153_freq port1 port2 PARAMS: Cpar=7.14pF Ind=14.5uH
X1 port1 port2 Model1A PARAMS:
+ R1=24300
+ R2=0.462
+ C= {Cpar}
+ K1=0.0000301
+ K2=2.69
+ K3= {Ind}
+ K4=0.153
+ K5=5.33E-07
+ L=0
+ Is=0
+ a=0
+ L_Z0=0
+ L_EL=0
+ L_F0=0E6
+ PkZ=1388.79008
.ends LPO6610-153_freq

*======================================================================
* SPICE Model generated by Coilcraft
* Coilcraft Part Number : LPO6610-153
* Inductance = 14.5uH
*======================================================================
* Model Parameters:
*   Valid Frequency Range = 0.1MHz-10MHz
*   Ambient Temperature = 25 degC
*   Inductor Impedance Model
*   Use model for Time Domain simulations
*======================================================================
.subckt LPO6610-153_imp port1 port2 PARAMS: Cpar=6.98pF Ind=14.5uH
X1 port1 port2 Model1D PARAMS:
+ R1=24300
+ R2=0.462
+ C= {Cpar}
+ K1=0.0000301
+ K2=2.69
+ K3= {Ind}
+ K4=0.153
+ K5=5.33E-07
+ L=0
+ Is=0
+ a=0
+ L_Z0=0
+ L_EL=0
+ L_F0=0E6
+ PkZ=1388.79008
.ends LPO6610-153_imp

*======================================================================
* SPICE Model generated by Coilcraft
* Coilcraft Part Number : LPO6610-223
* Inductance = 21.9uH
*======================================================================
* Model Parameters:
*   Valid Frequency Range = 0.1MHz-8MHz
*   Ambient Temperature = 25 degC
*   Inductor Frequency Model
*   Use model for Frequency Domain simulations
*======================================================================
.subckt LPO6610-223_freq port1 port2 PARAMS: Cpar=3.21pF Ind=21.9uH
X1 port1 port2 Model1A PARAMS:
+ R1=27800
+ R2=0.769
+ C= {Cpar}
+ K1=0.0000152
+ K2=5.86
+ K3= {Ind}
+ K4=0.0764
+ K5=21.9
+ L=0
+ Is=0
+ a=0
+ L_Z0=0
+ L_EL=0
+ L_F0=0E6
+ PkZ=2496.52992
.ends LPO6610-223_freq

*======================================================================
* SPICE Model generated by Coilcraft
* Coilcraft Part Number : LPO6610-223
* Inductance = 21.9uH
*======================================================================
* Model Parameters:
*   Valid Frequency Range = 0.1MHz-8MHz
*   Ambient Temperature = 25 degC
*   Inductor Impedance Model
*   Use model for Time Domain simulations
*======================================================================
.subckt LPO6610-223_imp port1 port2 PARAMS: Cpar=2.99pF Ind=21.9uH
X1 port1 port2 Model1D PARAMS:
+ R1=27800
+ R2=0.769
+ C= {Cpar}
+ K1=0.0000152
+ K2=5.86
+ K3= {Ind}
+ K4=0.0764
+ K5=21.9
+ L=0
+ Is=0
+ a=0
+ L_Z0=0
+ L_EL=0
+ L_F0=0E6
+ PkZ=2496.52992
.ends LPO6610-223_imp

*======================================================================
* SPICE Model generated by Coilcraft
* Coilcraft Part Number : LPO6610-333
* Inductance = 32.8uH
*======================================================================
* Model Parameters:
*   Valid Frequency Range = 0.1MHz-8MHz
*   Ambient Temperature = 25 degC
*   Inductor Frequency Model
*   Use model for Frequency Domain simulations
*======================================================================
.subckt LPO6610-333_freq port1 port2 PARAMS: Cpar=1.9pF Ind=32.8uH
X1 port1 port2 Model1A PARAMS:
+ R1=46400
+ R2=1.05
+ C= {Cpar}
+ K1=0.0000106
+ K2=6.32
+ K3= {Ind}
+ K4=0.194
+ K5=9.41E-07
+ L=0
+ Is=0
+ a=0
+ L_Z0=0
+ L_EL=0
+ L_F0=0E6
+ PkZ=4041.50731
.ends LPO6610-333_freq

*======================================================================
* SPICE Model generated by Coilcraft
* Coilcraft Part Number : LPO6610-333
* Inductance = 32.8uH
*======================================================================
* Model Parameters:
*   Valid Frequency Range = 0.1MHz-8MHz
*   Ambient Temperature = 25 degC
*   Inductor Impedance Model
*   Use model for Time Domain simulations
*======================================================================
.subckt LPO6610-333_imp port1 port2 PARAMS: Cpar=1.87pF Ind=32.8uH
X1 port1 port2 Model1D PARAMS:
+ R1=46400
+ R2=1.05
+ C= {Cpar}
+ K1=0.0000106
+ K2=6.32
+ K3= {Ind}
+ K4=0.194
+ K5=9.41E-07
+ L=0
+ Is=0
+ a=0
+ L_Z0=0
+ L_EL=0
+ L_F0=0E6
+ PkZ=4041.50731
.ends LPO6610-333_imp

*======================================================================
* SPICE Model generated by Coilcraft
* Coilcraft Part Number : LPO6610-473
* Inductance = 46.5uH
*======================================================================
* Model Parameters:
*   Valid Frequency Range = 0.1MHz-4MHz
*   Ambient Temperature = 25 degC
*   Inductor Frequency Model
*   Use model for Frequency Domain simulations
*======================================================================
.subckt LPO6610-473_freq port1 port2 PARAMS: Cpar=0.673pF Ind=46.5uH
X1 port1 port2 Model1A PARAMS:
+ R1=70500
+ R2=1.9
+ C= {Cpar}
+ K1=0.0000184
+ K2=17.2
+ K3= {Ind}
+ K4=0.368
+ K5=8.95E-07
+ L=0
+ Is=0
+ a=0
+ L_Z0=0
+ L_EL=0
+ L_F0=0E6
+ PkZ=8144.01238
.ends LPO6610-473_freq

*======================================================================
* SPICE Model generated by Coilcraft
* Coilcraft Part Number : LPO6610-473
* Inductance = 46.5uH
*======================================================================
* Model Parameters:
*   Valid Frequency Range = 0.1MHz-4MHz
*   Ambient Temperature = 25 degC
*   Inductor Impedance Model
*   Use model for Time Domain simulations
*======================================================================
.subckt LPO6610-473_imp port1 port2 PARAMS: Cpar=0.66pF Ind=46.5uH
X1 port1 port2 Model1D PARAMS:
+ R1=70500
+ R2=1.9
+ C= {Cpar}
+ K1=0.0000184
+ K2=17.2
+ K3= {Ind}
+ K4=0.368
+ K5=8.95E-07
+ L=0
+ Is=0
+ a=0
+ L_Z0=0
+ L_EL=0
+ L_F0=0E6
+ PkZ=8144.01238
.ends LPO6610-473_imp

*======================================================================
* SPICE Model generated by Coilcraft
* Coilcraft Part Number : LPO6610-683
* Inductance = 66.6uH
*======================================================================
* Model Parameters:
*   Valid Frequency Range = 0.1MHz-4MHz
*   Ambient Temperature = 25 degC
*   Inductor Frequency Model
*   Use model for Frequency Domain simulations
*======================================================================
.subckt LPO6610-683_freq port1 port2 PARAMS: Cpar=1.35pF Ind=66.6uH
X1 port1 port2 Model1A PARAMS:
+ R1=16700
+ R2=2.37
+ C= {Cpar}
+ K1=0.0000226
+ K2=19.5
+ K3= {Ind}
+ K4=0.42
+ K5=0.00000112
+ L=0
+ Is=0
+ a=0
+ L_Z0=0
+ L_EL=0
+ L_F0=0E6
+ PkZ=7250.87584
.ends LPO6610-683_freq

*======================================================================
* SPICE Model generated by Coilcraft
* Coilcraft Part Number : LPO6610-683
* Inductance = 66.6uH
*======================================================================
* Model Parameters:
*   Valid Frequency Range = 0.1MHz-4MHz
*   Ambient Temperature = 25 degC
*   Inductor Impedance Model
*   Use model for Time Domain simulations
*======================================================================
.subckt LPO6610-683_imp port1 port2 PARAMS: Cpar=1.33pF Ind=66.6uH
X1 port1 port2 Model1D PARAMS:
+ R1=16700
+ R2=2.37
+ C= {Cpar}
+ K1=0.0000226
+ K2=19.5
+ K3= {Ind}
+ K4=0.42
+ K5=0.00000112
+ L=0
+ Is=0
+ a=0
+ L_Z0=0
+ L_EL=0
+ L_F0=0E6
+ PkZ=7250.87584
.ends LPO6610-683_imp

*======================================================================
* SPICE Model generated by Coilcraft
* Coilcraft Part Number : LPO6610-104
* Inductance = 97.9uH
*======================================================================
* Model Parameters:
*   Valid Frequency Range = 0.1MHz-4MHz
*   Ambient Temperature = 25 degC
*   Inductor Frequency Model
*   Use model for Frequency Domain simulations
*======================================================================
.subckt LPO6610-104_freq port1 port2 PARAMS: Cpar=1.66pF Ind=97.9uH
X1 port1 port2 Model1A PARAMS:
+ R1=15500
+ R2=3.12
+ C= {Cpar}
+ K1=0.0000184
+ K2=20.2
+ K3= {Ind}
+ K4=0.867
+ K5=0.00000126
+ L=0
+ Is=0
+ a=0
+ L_Z0=0
+ L_EL=0
+ L_F0=0E6
+ PkZ=7990.44236
.ends LPO6610-104_freq

*======================================================================
* SPICE Model generated by Coilcraft
* Coilcraft Part Number : LPO6610-104
* Inductance = 97.9uH
*======================================================================
* Model Parameters:
*   Valid Frequency Range = 0.1MHz-4MHz
*   Ambient Temperature = 25 degC
*   Inductor Impedance Model
*   Use model for Time Domain simulations
*======================================================================
.subckt LPO6610-104_imp port1 port2 PARAMS: Cpar=1.62pF Ind=97.9uH
X1 port1 port2 Model1D PARAMS:
+ R1=15500
+ R2=3.12
+ C= {Cpar}
+ K1=0.0000184
+ K2=20.2
+ K3= {Ind}
+ K4=0.867
+ K5=0.00000126
+ L=0
+ Is=0
+ a=0
+ L_Z0=0
+ L_EL=0
+ L_F0=0E6
+ PkZ=7990.44236
.ends LPO6610-104_imp

*======================================================================
* SPICE Model generated by Coilcraft
* Coilcraft Part Number : LPO6610-154
* Inductance = 148uH
*======================================================================
* Model Parameters:
*   Valid Frequency Range = 0.1MHz-4MHz
*   Ambient Temperature = 25 degC
*   Inductor Frequency Model
*   Use model for Frequency Domain simulations
*======================================================================
.subckt LPO6610-154_freq port1 port2 PARAMS: Cpar=1.52pF Ind=148uH
X1 port1 port2 Model1A PARAMS:
+ R1=2790
+ R2=5.93
+ C= {Cpar}
+ K1=0.0000102
+ K2=61.7
+ K3= {Ind}
+ K4=1.06
+ K5=0.00000206
+ L=0
+ Is=0
+ a=0
+ L_Z0=0
+ L_EL=0
+ L_F0=0E6
+ PkZ=30345.6228
.ends LPO6610-154_freq

*======================================================================
* SPICE Model generated by Coilcraft
* Coilcraft Part Number : LPO6610-154
* Inductance = 148uH
*======================================================================
* Model Parameters:
*   Valid Frequency Range = 0.1MHz-4MHz
*   Ambient Temperature = 25 degC
*   Inductor Impedance Model
*   Use model for Time Domain simulations
*======================================================================
.subckt LPO6610-154_imp port1 port2 PARAMS: Cpar=1.49pF Ind=148uH
X1 port1 port2 Model1D PARAMS:
+ R1=2790
+ R2=5.93
+ C= {Cpar}
+ K1=0.0000102
+ K2=61.7
+ K3= {Ind}
+ K4=1.06
+ K5=0.00000206
+ L=0
+ Is=0
+ a=0
+ L_Z0=0
+ L_EL=0
+ L_F0=0E6
+ PkZ=30345.6228
.ends LPO6610-154_imp

*======================================================================
* SPICE Model generated by Coilcraft
* Coilcraft Part Number : LPO6610-224
* Inductance = 218uH
*======================================================================
* Model Parameters:
*   Valid Frequency Range = 0.1MHz-4MHz
*   Ambient Temperature = 25 degC
*   Inductor Frequency Model
*   Use model for Frequency Domain simulations
*======================================================================
.subckt LPO6610-224_freq port1 port2 PARAMS: Cpar=2.09pF Ind=218uH
X1 port1 port2 Model1A PARAMS:
+ R1=1990
+ R2=8.15
+ C= {Cpar}
+ K1=0.00000932
+ K2=66.2
+ K3= {Ind}
+ K4=1.43
+ K5=0.00000305
+ L=0
+ Is=0
+ a=0
+ L_Z0=0
+ L_EL=0
+ L_F0=0E6
+ PkZ=40766.3749
.ends LPO6610-224_freq

*======================================================================
* SPICE Model generated by Coilcraft
* Coilcraft Part Number : LPO6610-224
* Inductance = 218uH
*======================================================================
* Model Parameters:
*   Valid Frequency Range = 0.1MHz-4MHz
*   Ambient Temperature = 25 degC
*   Inductor Impedance Model
*   Use model for Time Domain simulations
*======================================================================
.subckt LPO6610-224_imp port1 port2 PARAMS: Cpar=2.05pF Ind=218uH
X1 port1 port2 Model1D PARAMS:
+ R1=1990
+ R2=8.15
+ C= {Cpar}
+ K1=0.00000932
+ K2=66.2
+ K3= {Ind}
+ K4=1.43
+ K5=0.00000305
+ L=0
+ Is=0
+ a=0
+ L_Z0=0
+ L_EL=0
+ L_F0=0E6
+ PkZ=40766.3749
.ends LPO6610-224_imp

*======================================================================
* SPICE Model generated by Coilcraft
* Coilcraft Part Number : LPO6610-334
* Inductance = 327uH
*======================================================================
* Model Parameters:
*   Valid Frequency Range = 0.1MHz-3MHz
*   Ambient Temperature = 25 degC
*   Inductor Frequency Model
*   Use model for Frequency Domain simulations
*======================================================================
.subckt LPO6610-334_freq port1 port2 PARAMS: Cpar=1.25pF Ind=327uH
X1 port1 port2 Model1A PARAMS:
+ R1=720
+ R2=12.3
+ C= {Cpar}
+ K1=0.00000797
+ K2=183
+ K3= {Ind}
+ K4=1.7
+ K5=0.00000359
+ L=0
+ Is=0
+ a=0
+ L_Z0=0
+ L_EL=0
+ L_F0=0E6
+ PkZ=211150.071
.ends LPO6610-334_freq

*======================================================================
* SPICE Model generated by Coilcraft
* Coilcraft Part Number : LPO6610-334
* Inductance = 327uH
*======================================================================
* Model Parameters:
*   Valid Frequency Range = 0.1MHz-3MHz
*   Ambient Temperature = 25 degC
*   Inductor Impedance Model
*   Use model for Time Domain simulations
*======================================================================
.subckt LPO6610-334_imp port1 port2 PARAMS: Cpar=1.23pF Ind=327uH
X1 port1 port2 Model1D PARAMS:
+ R1=720
+ R2=12.3
+ C= {Cpar}
+ K1=0.00000797
+ K2=183
+ K3= {Ind}
+ K4=1.7
+ K5=0.00000359
+ L=0
+ Is=0
+ a=0
+ L_Z0=0
+ L_EL=0
+ L_F0=0E6
+ PkZ=211150.071
.ends LPO6610-334_imp

*======================================================================
* SPICE Model generated by Coilcraft
* Coilcraft Impedance Inductor Model
*======================================================================
* Model Parameters:
*   Valid Frequency Range Varies by Inductor
*   Ambient Temperature = 25 degC
*   Time Domain Inductor Impedance Model
*======================================================================
.subckt Model1D Lin Lout PARAMS:
+ R1=1
+ R2=1
+ C=1
+ K3=1
+ PkZ=1
R2 Lin N001 {R2}
R3 N001 Lout {PkZ}
C1 N001 N002 {C}
R1 N002 Lout {R1}
L1 N001 Lout {K3}
.ends Model1D

*======================================================================
* SPICE Model generated by Coilcraft
* Coilcraft Power Inductor Model
*======================================================================
* Model Parameters:
*   Valid Frequency Range Varies by Inductor
*   Ambient Temperature = 25 degC
*   DC Bias Current = 0 A
*   Frequency Dependent Inductor Model
*======================================================================
.subckt Model1A Lin Lout PARAMS:
+ R1=1
+ R2=1
+ C=1
+ K1=1
+ K2=1
+ K3=1
+ K4=1
+ K5=1
R2 N001 Lin {R2}
R1 Lout N002 {R1}
C1 N002 N001 {C}
G_Rvar2 N001 Lout LAPLACE { V(N001, Lout) } {1/K2/(-S*S/4/PI^2)^0.25}
G_Rvar1 N001 N003 LAPLACE { V(N001, N003) } {1/K1/(-S*S/4/PI^2)^0.25}
G_Lvar N003 Lout  LAPLACE { V(N003, Lout) } {1/(S*1e-6*({K3*1e6}-({K4}*LOG({K5}*(sqrt(-S*S)/(2*pi))))))}
*This large resistance to ground has been added to prevent a floating node error
R3 N003 0 100Meg
.ends Model1A


.subckt Coilcraft_Inductor Lin Lout
R1 Lout Lin 100Meg
.ends Coilcraft_Inductor
