*======================================================================
* SPICE Model generated by Coilcraft
* Coilcraft Part Number : LPS3314-102
* Inductance = 1uH
*======================================================================
* Model Parameters:
*   Valid Frequency Range = 0.1MHz-100MHz
*   Ambient Temperature = 25 degC
*   Inductor Frequency Model
*   Use model for Frequency Domain simulations
*======================================================================
.subckt LPS3314-102_freq port1 port2 PARAMS: Cpar=0.86pF Ind=1uH
X1 port1 port2 Model1A PARAMS:
+ R1=450
+ R2=0.055
+ C= {Cpar}
+ K1=0.0002
+ K2=0.3
+ K3= {Ind}
+ K4=0.019
+ K5=0.0000095
+ L=0
+ Is=0
+ a=0
+ L_Z0=0
+ L_EL=0
+ L_F0=0E6
+ PkZ=1550.43938
.ends LPS3314-102_freq

*======================================================================
* SPICE Model generated by Coilcraft
* Coilcraft Part Number : LPS3314-102
* Inductance = 1uH
*======================================================================
* Model Parameters:
*   Valid Frequency Range = 0.1MHz-100MHz
*   Ambient Temperature = 25 degC
*   Inductor Impedance Model
*   Use model for Time Domain simulations
*======================================================================
.subckt LPS3314-102_imp port1 port2 PARAMS: Cpar=0.74pF Ind=1uH
X1 port1 port2 Model1D PARAMS:
+ R1=450
+ R2=0.055
+ C= {Cpar}
+ K1=0.0002
+ K2=0.3
+ K3= {Ind}
+ K4=0.019
+ K5=0.0000095
+ L=0
+ Is=0
+ a=0
+ L_Z0=0
+ L_EL=0
+ L_F0=0E6
+ PkZ=1550.43938
.ends LPS3314-102_imp

*======================================================================
* SPICE Model generated by Coilcraft
* Coilcraft Part Number : LPS3314-222
* Inductance = 2.2uH
*======================================================================
* Model Parameters:
*   Valid Frequency Range = 0.1MHz-100MHz
*   Ambient Temperature = 25 degC
*   Inductor Frequency Model
*   Use model for Frequency Domain simulations
*======================================================================
.subckt LPS3314-222_freq port1 port2 PARAMS: Cpar=1.01pF Ind=2.2uH
X1 port1 port2 Model1A PARAMS:
+ R1=320
+ R2=0.1
+ C= {Cpar}
+ K1=0.00001
+ K2=0.62
+ K3= {Ind}
+ K4=0.027
+ K5=0.0000098
+ L=0
+ Is=0
+ a=0
+ L_Z0=0
+ L_EL=0
+ L_F0=0E6
+ PkZ=3252.42178
.ends LPS3314-222_freq

*======================================================================
* SPICE Model generated by Coilcraft
* Coilcraft Part Number : LPS3314-222
* Inductance = 2.2uH
*======================================================================
* Model Parameters:
*   Valid Frequency Range = 0.1MHz-100MHz
*   Ambient Temperature = 25 degC
*   Inductor Impedance Model
*   Use model for Time Domain simulations
*======================================================================
.subckt LPS3314-222_imp port1 port2 PARAMS: Cpar=0.92pF Ind=2.2uH
X1 port1 port2 Model1D PARAMS:
+ R1=320
+ R2=0.1
+ C= {Cpar}
+ K1=0.00001
+ K2=0.62
+ K3= {Ind}
+ K4=0.027
+ K5=0.0000098
+ L=0
+ Is=0
+ a=0
+ L_Z0=0
+ L_EL=0
+ L_F0=0E6
+ PkZ=3252.42178
.ends LPS3314-222_imp

*======================================================================
* SPICE Model generated by Coilcraft
* Coilcraft Part Number : LPS3314-332
* Inductance = 3.3uH
*======================================================================
* Model Parameters:
*   Valid Frequency Range = 0.1MHz-100MHz
*   Ambient Temperature = 25 degC
*   Inductor Frequency Model
*   Use model for Frequency Domain simulations
*======================================================================
.subckt LPS3314-332_freq port1 port2 PARAMS: Cpar=0.918pF Ind=3.3uH
X1 port1 port2 Model1A PARAMS:
+ R1=315
+ R2=0.145
+ C= {Cpar}
+ K1=0.00001
+ K2=0.91
+ K3= {Ind}
+ K4=0.036
+ K5=0.0000098
+ L=0
+ Is=0
+ a=0
+ L_Z0=0
+ L_EL=0
+ L_F0=0E6
+ PkZ=4871.19232
.ends LPS3314-332_freq

*======================================================================
* SPICE Model generated by Coilcraft
* Coilcraft Part Number : LPS3314-332
* Inductance = 3.3uH
*======================================================================
* Model Parameters:
*   Valid Frequency Range = 0.1MHz-100MHz
*   Ambient Temperature = 25 degC
*   Inductor Impedance Model
*   Use model for Time Domain simulations
*======================================================================
.subckt LPS3314-332_imp port1 port2 PARAMS: Cpar=0.85pF Ind=3.3uH
X1 port1 port2 Model1D PARAMS:
+ R1=315
+ R2=0.145
+ C= {Cpar}
+ K1=0.00001
+ K2=0.91
+ K3= {Ind}
+ K4=0.036
+ K5=0.0000098
+ L=0
+ Is=0
+ a=0
+ L_Z0=0
+ L_EL=0
+ L_F0=0E6
+ PkZ=4871.19232
.ends LPS3314-332_imp

*======================================================================
* SPICE Model generated by Coilcraft
* Coilcraft Part Number : LPS3314-472
* Inductance = 4.7uH
*======================================================================
* Model Parameters:
*   Valid Frequency Range = 0.1MHz-100MHz
*   Ambient Temperature = 25 degC
*   Inductor Frequency Model
*   Use model for Frequency Domain simulations
*======================================================================
.subckt LPS3314-472_freq port1 port2 PARAMS: Cpar=1.01pF Ind=4.7uH
X1 port1 port2 Model1A PARAMS:
+ R1=165
+ R2=0.175
+ C= {Cpar}
+ K1=0.00002
+ K2=1.28
+ K3= {Ind}
+ K4=0.048
+ K5=0.0000099
+ L=0
+ Is=0
+ a=0
+ L_Z0=0
+ L_EL=0
+ L_F0=0E6
+ PkZ=7831.80898
.ends LPS3314-472_freq

*======================================================================
* SPICE Model generated by Coilcraft
* Coilcraft Part Number : LPS3314-472
* Inductance = 4.7uH
*======================================================================
* Model Parameters:
*   Valid Frequency Range = 0.1MHz-100MHz
*   Ambient Temperature = 25 degC
*   Inductor Impedance Model
*   Use model for Time Domain simulations
*======================================================================
.subckt LPS3314-472_imp port1 port2 PARAMS: Cpar=0.94pF Ind=4.7uH
X1 port1 port2 Model1D PARAMS:
+ R1=165
+ R2=0.175
+ C= {Cpar}
+ K1=0.00002
+ K2=1.28
+ K3= {Ind}
+ K4=0.048
+ K5=0.0000099
+ L=0
+ Is=0
+ a=0
+ L_Z0=0
+ L_EL=0
+ L_F0=0E6
+ PkZ=7831.80898
.ends LPS3314-472_imp

*======================================================================
* SPICE Model generated by Coilcraft
* Coilcraft Part Number : LPS3314-562
* Inductance = 5.6uH
*======================================================================
* Model Parameters:
*   Valid Frequency Range = 0.1MHz-100MHz
*   Ambient Temperature = 25 degC
*   Inductor Frequency Model
*   Use model for Frequency Domain simulations
*======================================================================
.subckt LPS3314-562_freq port1 port2 PARAMS: Cpar=1.19pF Ind=5.6uH
X1 port1 port2 Model1A PARAMS:
+ R1=105
+ R2=0.22
+ C= {Cpar}
+ K1=0.00005
+ K2=1.42
+ K3= {Ind}
+ K4=0.053
+ K5=0.0000099
+ L=0
+ Is=0
+ a=0
+ L_Z0=0
+ L_EL=0
+ L_F0=0E6
+ PkZ=8921.73628
.ends LPS3314-562_freq

*======================================================================
* SPICE Model generated by Coilcraft
* Coilcraft Part Number : LPS3314-562
* Inductance = 5.6uH
*======================================================================
* Model Parameters:
*   Valid Frequency Range = 0.1MHz-100MHz
*   Ambient Temperature = 25 degC
*   Inductor Impedance Model
*   Use model for Time Domain simulations
*======================================================================
.subckt LPS3314-562_imp port1 port2 PARAMS: Cpar=1.12pF Ind=5.6uH
X1 port1 port2 Model1D PARAMS:
+ R1=105
+ R2=0.22
+ C= {Cpar}
+ K1=0.00005
+ K2=1.42
+ K3= {Ind}
+ K4=0.053
+ K5=0.0000099
+ L=0
+ Is=0
+ a=0
+ L_Z0=0
+ L_EL=0
+ L_F0=0E6
+ PkZ=8921.73628
.ends LPS3314-562_imp

*======================================================================
* SPICE Model generated by Coilcraft
* Coilcraft Part Number : LPS3314-682
* Inductance = 6.8uH
*======================================================================
* Model Parameters:
*   Valid Frequency Range = 0.1MHz-100MHz
*   Ambient Temperature = 25 degC
*   Inductor Frequency Model
*   Use model for Frequency Domain simulations
*======================================================================
.subckt LPS3314-682_freq port1 port2 PARAMS: Cpar=1.1pF Ind=6.8uH
X1 port1 port2 Model1A PARAMS:
+ R1=225
+ R2=0.24
+ C= {Cpar}
+ K1=0.00001
+ K2=2
+ K3= {Ind}
+ K4=0.075
+ K5=0.0000099
+ L=0
+ Is=0
+ a=0
+ L_Z0=0
+ L_EL=0
+ L_F0=0E6
+ PkZ=9685.68144
.ends LPS3314-682_freq

*======================================================================
* SPICE Model generated by Coilcraft
* Coilcraft Part Number : LPS3314-682
* Inductance = 6.8uH
*======================================================================
* Model Parameters:
*   Valid Frequency Range = 0.1MHz-100MHz
*   Ambient Temperature = 25 degC
*   Inductor Impedance Model
*   Use model for Time Domain simulations
*======================================================================
.subckt LPS3314-682_imp port1 port2 PARAMS: Cpar=1.02pF Ind=6.8uH
X1 port1 port2 Model1D PARAMS:
+ R1=225
+ R2=0.24
+ C= {Cpar}
+ K1=0.00001
+ K2=2
+ K3= {Ind}
+ K4=0.075
+ K5=0.0000099
+ L=0
+ Is=0
+ a=0
+ L_Z0=0
+ L_EL=0
+ L_F0=0E6
+ PkZ=9685.68144
.ends LPS3314-682_imp

*======================================================================
* SPICE Model generated by Coilcraft
* Coilcraft Part Number : LPS3314-822
* Inductance = 8.2uH
*======================================================================
* Model Parameters:
*   Valid Frequency Range = 0.1MHz-100MHz
*   Ambient Temperature = 25 degC
*   Inductor Frequency Model
*   Use model for Frequency Domain simulations
*======================================================================
.subckt LPS3314-822_freq port1 port2 PARAMS: Cpar=0.975pF Ind=8.2uH
X1 port1 port2 Model1A PARAMS:
+ R1=205
+ R2=0.27
+ C= {Cpar}
+ K1=0.00002
+ K2=2.32
+ K3= {Ind}
+ K4=0.116
+ K5=0.00000995
+ L=0
+ Is=0
+ a=0
+ L_Z0=0
+ L_EL=0
+ L_F0=0E6
+ PkZ=12078.064
.ends LPS3314-822_freq

*======================================================================
* SPICE Model generated by Coilcraft
* Coilcraft Part Number : LPS3314-822
* Inductance = 8.2uH
*======================================================================
* Model Parameters:
*   Valid Frequency Range = 0.1MHz-100MHz
*   Ambient Temperature = 25 degC
*   Inductor Impedance Model
*   Use model for Time Domain simulations
*======================================================================
.subckt LPS3314-822_imp port1 port2 PARAMS: Cpar=0.89pF Ind=8.2uH
X1 port1 port2 Model1D PARAMS:
+ R1=205
+ R2=0.27
+ C= {Cpar}
+ K1=0.00002
+ K2=2.32
+ K3= {Ind}
+ K4=0.116
+ K5=0.00000995
+ L=0
+ Is=0
+ a=0
+ L_Z0=0
+ L_EL=0
+ L_F0=0E6
+ PkZ=12078.064
.ends LPS3314-822_imp

*======================================================================
* SPICE Model generated by Coilcraft
* Coilcraft Part Number : LPS3314-103
* Inductance = 10uH
*======================================================================
* Model Parameters:
*   Valid Frequency Range = 0.1MHz-80MHz
*   Ambient Temperature = 25 degC
*   Inductor Frequency Model
*   Use model for Frequency Domain simulations
*======================================================================
.subckt LPS3314-103_freq port1 port2 PARAMS: Cpar=1.18pF Ind=10uH
X1 port1 port2 Model1A PARAMS:
+ R1=160
+ R2=0.33
+ C= {Cpar}
+ K1=0.00004
+ K2=2.82
+ K3= {Ind}
+ K4=0.14
+ K5=0.00000995
+ L=0
+ Is=0
+ a=0
+ L_Z0=0
+ L_EL=0
+ L_F0=0E6
+ PkZ=13971.4399
.ends LPS3314-103_freq

*======================================================================
* SPICE Model generated by Coilcraft
* Coilcraft Part Number : LPS3314-103
* Inductance = 10uH
*======================================================================
* Model Parameters:
*   Valid Frequency Range = 0.1MHz-80MHz
*   Ambient Temperature = 25 degC
*   Inductor Impedance Model
*   Use model for Time Domain simulations
*======================================================================
.subckt LPS3314-103_imp port1 port2 PARAMS: Cpar=1.08pF Ind=10uH
X1 port1 port2 Model1D PARAMS:
+ R1=160
+ R2=0.33
+ C= {Cpar}
+ K1=0.00004
+ K2=2.82
+ K3= {Ind}
+ K4=0.14
+ K5=0.00000995
+ L=0
+ Is=0
+ a=0
+ L_Z0=0
+ L_EL=0
+ L_F0=0E6
+ PkZ=13971.4399
.ends LPS3314-103_imp

*======================================================================
* SPICE Model generated by Coilcraft
* Coilcraft Part Number : LPS3314-153
* Inductance = 15uH
*======================================================================
* Model Parameters:
*   Valid Frequency Range = 0.1MHz-80MHz
*   Ambient Temperature = 25 degC
*   Inductor Frequency Model
*   Use model for Frequency Domain simulations
*======================================================================
.subckt LPS3314-153_freq port1 port2 PARAMS: Cpar=1.33pF Ind=15uH
X1 port1 port2 Model1A PARAMS:
+ R1=80
+ R2=0.44
+ C= {Cpar}
+ K1=0.00008
+ K2=4.18
+ K3= {Ind}
+ K4=0.22
+ K5=0.00000995
+ L=0
+ Is=0
+ a=0
+ L_Z0=0
+ L_EL=0
+ L_F0=0E6
+ PkZ=21280.8952
.ends LPS3314-153_freq

*======================================================================
* SPICE Model generated by Coilcraft
* Coilcraft Part Number : LPS3314-153
* Inductance = 15uH
*======================================================================
* Model Parameters:
*   Valid Frequency Range = 0.1MHz-80MHz
*   Ambient Temperature = 25 degC
*   Inductor Impedance Model
*   Use model for Time Domain simulations
*======================================================================
.subckt LPS3314-153_imp port1 port2 PARAMS: Cpar=1.22pF Ind=15uH
X1 port1 port2 Model1D PARAMS:
+ R1=80
+ R2=0.44
+ C= {Cpar}
+ K1=0.00008
+ K2=4.18
+ K3= {Ind}
+ K4=0.22
+ K5=0.00000995
+ L=0
+ Is=0
+ a=0
+ L_Z0=0
+ L_EL=0
+ L_F0=0E6
+ PkZ=21280.8952
.ends LPS3314-153_imp

*======================================================================
* SPICE Model generated by Coilcraft
* Coilcraft Part Number : LPS3314-183
* Inductance = 18uH
*======================================================================
* Model Parameters:
*   Valid Frequency Range = 0.1MHz-80MHz
*   Ambient Temperature = 25 degC
*   Inductor Frequency Model
*   Use model for Frequency Domain simulations
*======================================================================
.subckt LPS3314-183_freq port1 port2 PARAMS: Cpar=1.35pF Ind=18uH
X1 port1 port2 Model1A PARAMS:
+ R1=50
+ R2=0.575
+ C= {Cpar}
+ K1=0.00005
+ K2=4.84
+ K3= {Ind}
+ K4=0.28
+ K5=0.00000995
+ L=0
+ Is=0
+ a=0
+ L_Z0=0
+ L_EL=0
+ L_F0=0E6
+ PkZ=25214.4141
.ends LPS3314-183_freq

*======================================================================
* SPICE Model generated by Coilcraft
* Coilcraft Part Number : LPS3314-183
* Inductance = 18uH
*======================================================================
* Model Parameters:
*   Valid Frequency Range = 0.1MHz-80MHz
*   Ambient Temperature = 25 degC
*   Inductor Impedance Model
*   Use model for Time Domain simulations
*======================================================================
.subckt LPS3314-183_imp port1 port2 PARAMS: Cpar=1.23pF Ind=18uH
X1 port1 port2 Model1D PARAMS:
+ R1=50
+ R2=0.575
+ C= {Cpar}
+ K1=0.00005
+ K2=4.84
+ K3= {Ind}
+ K4=0.28
+ K5=0.00000995
+ L=0
+ Is=0
+ a=0
+ L_Z0=0
+ L_EL=0
+ L_F0=0E6
+ PkZ=25214.4141
.ends LPS3314-183_imp

*======================================================================
* SPICE Model generated by Coilcraft
* Coilcraft Part Number : LPS3314-223
* Inductance = 22uH
*======================================================================
* Model Parameters:
*   Valid Frequency Range = 0.1MHz-70MHz
*   Ambient Temperature = 25 degC
*   Inductor Frequency Model
*   Use model for Frequency Domain simulations
*======================================================================
.subckt LPS3314-223_freq port1 port2 PARAMS: Cpar=1.4pF Ind=22uH
X1 port1 port2 Model1A PARAMS:
+ R1=60
+ R2=0.72
+ C= {Cpar}
+ K1=0.00001
+ K2=6.1
+ K3= {Ind}
+ K4=0.28
+ K5=0.00000995
+ L=0
+ Is=0
+ a=0
+ L_Z0=0
+ L_EL=0
+ L_F0=0E6
+ PkZ=29271.5045
.ends LPS3314-223_freq

*======================================================================
* SPICE Model generated by Coilcraft
* Coilcraft Part Number : LPS3314-223
* Inductance = 22uH
*======================================================================
* Model Parameters:
*   Valid Frequency Range = 0.1MHz-70MHz
*   Ambient Temperature = 25 degC
*   Inductor Impedance Model
*   Use model for Time Domain simulations
*======================================================================
.subckt LPS3314-223_imp port1 port2 PARAMS: Cpar=1.30pF Ind=22uH
X1 port1 port2 Model1D PARAMS:
+ R1=60
+ R2=0.72
+ C= {Cpar}
+ K1=0.00001
+ K2=6.1
+ K3= {Ind}
+ K4=0.28
+ K5=0.00000995
+ L=0
+ Is=0
+ a=0
+ L_Z0=0
+ L_EL=0
+ L_F0=0E6
+ PkZ=29271.5045
.ends LPS3314-223_imp

*======================================================================
* SPICE Model generated by Coilcraft
* Coilcraft Part Number : LPS3314-333
* Inductance = 33uH
*======================================================================
* Model Parameters:
*   Valid Frequency Range = 0.1MHz-40MHz
*   Ambient Temperature = 25 degC
*   Inductor Frequency Model
*   Use model for Frequency Domain simulations
*======================================================================
.subckt LPS3314-333_freq port1 port2 PARAMS: Cpar=1.48pF Ind=33uH
X1 port1 port2 Model1A PARAMS:
+ R1=85
+ R2=0.92
+ C= {Cpar}
+ K1=0.00001
+ K2=9.52
+ K3= {Ind}
+ K4=0.28
+ K5=0.00000995
+ L=0
+ Is=0
+ a=0
+ L_Z0=0
+ L_EL=0
+ L_F0=0E6
+ PkZ=38834.5984
.ends LPS3314-333_freq

*======================================================================
* SPICE Model generated by Coilcraft
* Coilcraft Part Number : LPS3314-333
* Inductance = 33uH
*======================================================================
* Model Parameters:
*   Valid Frequency Range = 0.1MHz-40MHz
*   Ambient Temperature = 25 degC
*   Inductor Impedance Model
*   Use model for Time Domain simulations
*======================================================================
.subckt LPS3314-333_imp port1 port2 PARAMS: Cpar=1.41pF Ind=33uH
X1 port1 port2 Model1D PARAMS:
+ R1=85
+ R2=0.92
+ C= {Cpar}
+ K1=0.00001
+ K2=9.52
+ K3= {Ind}
+ K4=0.28
+ K5=0.00000995
+ L=0
+ Is=0
+ a=0
+ L_Z0=0
+ L_EL=0
+ L_F0=0E6
+ PkZ=38834.5984
.ends LPS3314-333_imp

*======================================================================
* SPICE Model generated by Coilcraft
* Coilcraft Part Number : LPS3314-473
* Inductance = 47uH
*======================================================================
* Model Parameters:
*   Valid Frequency Range = 0.1MHz-30MHz
*   Ambient Temperature = 25 degC
*   Inductor Frequency Model
*   Use model for Frequency Domain simulations
*======================================================================
.subckt LPS3314-473_freq port1 port2 PARAMS: Cpar=1.49pF Ind=47uH
X1 port1 port2 Model1A PARAMS:
+ R1=160
+ R2=1.4
+ C= {Cpar}
+ K1=0.00001
+ K2=14.1
+ K3= {Ind}
+ K4=0.28
+ K5=0.00000998
+ L=0
+ Is=0
+ a=0
+ L_Z0=0
+ L_EL=0
+ L_F0=0E6
+ PkZ=46800.8025
.ends LPS3314-473_freq

*======================================================================
* SPICE Model generated by Coilcraft
* Coilcraft Part Number : LPS3314-473
* Inductance = 47uH
*======================================================================
* Model Parameters:
*   Valid Frequency Range = 0.1MHz-30MHz
*   Ambient Temperature = 25 degC
*   Inductor Impedance Model
*   Use model for Time Domain simulations
*======================================================================
.subckt LPS3314-473_imp port1 port2 PARAMS: Cpar=1.44pF Ind=47uH
X1 port1 port2 Model1D PARAMS:
+ R1=160
+ R2=1.4
+ C= {Cpar}
+ K1=0.00001
+ K2=14.1
+ K3= {Ind}
+ K4=0.28
+ K5=0.00000998
+ L=0
+ Is=0
+ a=0
+ L_Z0=0
+ L_EL=0
+ L_F0=0E6
+ PkZ=46800.8025
.ends LPS3314-473_imp

*======================================================================
* SPICE Model generated by Coilcraft
* Coilcraft Part Number : LPS3314-563
* Inductance = 56uH
*======================================================================
* Model Parameters:
*   Valid Frequency Range = 0.1MHz-30MHz
*   Ambient Temperature = 25 degC
*   Inductor Frequency Model
*   Use model for Frequency Domain simulations
*======================================================================
.subckt LPS3314-563_freq port1 port2 PARAMS: Cpar=1.47pF Ind=56uH
X1 port1 port2 Model1A PARAMS:
+ R1=140
+ R2=1.55
+ C= {Cpar}
+ K1=0.00001
+ K2=16.3
+ K3= {Ind}
+ K4=0.28
+ K5=0.00000998
+ L=0
+ Is=0
+ a=0
+ L_Z0=0
+ L_EL=0
+ L_F0=0E6
+ PkZ=54573.7796
.ends LPS3314-563_freq

*======================================================================
* SPICE Model generated by Coilcraft
* Coilcraft Part Number : LPS3314-563
* Inductance = 56uH
*======================================================================
* Model Parameters:
*   Valid Frequency Range = 0.1MHz-30MHz
*   Ambient Temperature = 25 degC
*   Inductor Impedance Model
*   Use model for Time Domain simulations
*======================================================================
.subckt LPS3314-563_imp port1 port2 PARAMS: Cpar=1.43pF Ind=56uH
X1 port1 port2 Model1D PARAMS:
+ R1=140
+ R2=1.55
+ C= {Cpar}
+ K1=0.00001
+ K2=16.3
+ K3= {Ind}
+ K4=0.28
+ K5=0.00000998
+ L=0
+ Is=0
+ a=0
+ L_Z0=0
+ L_EL=0
+ L_F0=0E6
+ PkZ=54573.7796
.ends LPS3314-563_imp

*======================================================================
* SPICE Model generated by Coilcraft
* Coilcraft Part Number : LPS3314-683
* Inductance = 68uH
*======================================================================
* Model Parameters:
*   Valid Frequency Range = 0.1MHz-20MHz
*   Ambient Temperature = 25 degC
*   Inductor Frequency Model
*   Use model for Frequency Domain simulations
*======================================================================
.subckt LPS3314-683_freq port1 port2 PARAMS: Cpar=1.69pF Ind=68uH
X1 port1 port2 Model1A PARAMS:
+ R1=150
+ R2=1.8
+ C= {Cpar}
+ K1=0.00001
+ K2=20
+ K3= {Ind}
+ K4=0.31
+ K5=0.00001
+ L=0
+ Is=0
+ a=0
+ L_Z0=0
+ L_EL=0
+ L_F0=0E6
+ PkZ=59824.8983
.ends LPS3314-683_freq

*======================================================================
* SPICE Model generated by Coilcraft
* Coilcraft Part Number : LPS3314-683
* Inductance = 68uH
*======================================================================
* Model Parameters:
*   Valid Frequency Range = 0.1MHz-20MHz
*   Ambient Temperature = 25 degC
*   Inductor Impedance Model
*   Use model for Time Domain simulations
*======================================================================
.subckt LPS3314-683_imp port1 port2 PARAMS: Cpar=1.65pF Ind=68uH
X1 port1 port2 Model1D PARAMS:
+ R1=150
+ R2=1.8
+ C= {Cpar}
+ K1=0.00001
+ K2=20
+ K3= {Ind}
+ K4=0.31
+ K5=0.00001
+ L=0
+ Is=0
+ a=0
+ L_Z0=0
+ L_EL=0
+ L_F0=0E6
+ PkZ=59824.8983
.ends LPS3314-683_imp

*======================================================================
* SPICE Model generated by Coilcraft
* Coilcraft Part Number : LPS3314-823
* Inductance = 82uH
*======================================================================
* Model Parameters:
*   Valid Frequency Range = 0.1MHz-20MHz
*   Ambient Temperature = 25 degC
*   Inductor Frequency Model
*   Use model for Frequency Domain simulations
*======================================================================
.subckt LPS3314-823_freq port1 port2 PARAMS: Cpar=1.56pF Ind=82uH
X1 port1 port2 Model1A PARAMS:
+ R1=200
+ R2=2
+ C= {Cpar}
+ K1=0.00001
+ K2=23
+ K3= {Ind}
+ K4=0.38
+ K5=0.00001
+ L=0
+ Is=0
+ a=0
+ L_Z0=0
+ L_EL=0
+ L_F0=0E6
+ PkZ=64871.1791
.ends LPS3314-823_freq

*======================================================================
* SPICE Model generated by Coilcraft
* Coilcraft Part Number : LPS3314-823
* Inductance = 82uH
*======================================================================
* Model Parameters:
*   Valid Frequency Range = 0.1MHz-20MHz
*   Ambient Temperature = 25 degC
*   Inductor Impedance Model
*   Use model for Time Domain simulations
*======================================================================
.subckt LPS3314-823_imp port1 port2 PARAMS: Cpar=1.52pF Ind=82uH
X1 port1 port2 Model1D PARAMS:
+ R1=200
+ R2=2
+ C= {Cpar}
+ K1=0.00001
+ K2=23
+ K3= {Ind}
+ K4=0.38
+ K5=0.00001
+ L=0
+ Is=0
+ a=0
+ L_Z0=0
+ L_EL=0
+ L_F0=0E6
+ PkZ=64871.1791
.ends LPS3314-823_imp

*======================================================================
* SPICE Model generated by Coilcraft
* Coilcraft Part Number : LPS3314-104
* Inductance = 100uH
*======================================================================
* Model Parameters:
*   Valid Frequency Range = 0.1MHz-20MHz
*   Ambient Temperature = 25 degC
*   Inductor Frequency Model
*   Use model for Frequency Domain simulations
*======================================================================
.subckt LPS3314-104_freq port1 port2 PARAMS: Cpar=1.39pF Ind=100uH
X1 port1 port2 Model1A PARAMS:
+ R1=220
+ R2=2.75
+ C= {Cpar}
+ K1=0.00001
+ K2=28
+ K3= {Ind}
+ K4=0.51
+ K5=0.00001
+ L=0
+ Is=0
+ a=0
+ L_Z0=0
+ L_EL=0
+ L_F0=0E6
+ PkZ=78163.1209
.ends LPS3314-104_freq

*======================================================================
* SPICE Model generated by Coilcraft
* Coilcraft Part Number : LPS3314-104
* Inductance = 100uH
*======================================================================
* Model Parameters:
*   Valid Frequency Range = 0.1MHz-20MHz
*   Ambient Temperature = 25 degC
*   Inductor Impedance Model
*   Use model for Time Domain simulations
*======================================================================
.subckt LPS3314-104_imp port1 port2 PARAMS: Cpar=1.36pF Ind=100uH
X1 port1 port2 Model1D PARAMS:
+ R1=220
+ R2=2.75
+ C= {Cpar}
+ K1=0.00001
+ K2=28
+ K3= {Ind}
+ K4=0.51
+ K5=0.00001
+ L=0
+ Is=0
+ a=0
+ L_Z0=0
+ L_EL=0
+ L_F0=0E6
+ PkZ=78163.1209
.ends LPS3314-104_imp

*======================================================================
* SPICE Model generated by Coilcraft
* Coilcraft Part Number : LPS3314-124
* Inductance = 120uH
*======================================================================
* Model Parameters:
*   Valid Frequency Range = 0.1MHz-20MHz
*   Ambient Temperature = 25 degC
*   Inductor Frequency Model
*   Use model for Frequency Domain simulations
*======================================================================
.subckt LPS3314-124_freq port1 port2 PARAMS: Cpar=1.99pF Ind=120uH
X1 port1 port2 Model1A PARAMS:
+ R1=100
+ R2=3.45
+ C= {Cpar}
+ K1=0.00001
+ K2=34
+ K3= {Ind}
+ K4=0.91
+ K5=0.00001
+ L=0
+ Is=0
+ a=0
+ L_Z0=0
+ L_EL=0
+ L_F0=0E6
+ PkZ=92577.202
.ends LPS3314-124_freq

*======================================================================
* SPICE Model generated by Coilcraft
* Coilcraft Part Number : LPS3314-124
* Inductance = 120uH
*======================================================================
* Model Parameters:
*   Valid Frequency Range = 0.1MHz-20MHz
*   Ambient Temperature = 25 degC
*   Inductor Impedance Model
*   Use model for Time Domain simulations
*======================================================================
.subckt LPS3314-124_imp port1 port2 PARAMS: Cpar=1.92pF Ind=120uH
X1 port1 port2 Model1D PARAMS:
+ R1=100
+ R2=3.45
+ C= {Cpar}
+ K1=0.00001
+ K2=34
+ K3= {Ind}
+ K4=0.91
+ K5=0.00001
+ L=0
+ Is=0
+ a=0
+ L_Z0=0
+ L_EL=0
+ L_F0=0E6
+ PkZ=92577.202
.ends LPS3314-124_imp

*======================================================================
* SPICE Model generated by Coilcraft
* Coilcraft Part Number : LPS3314-154
* Inductance = 150uH
*======================================================================
* Model Parameters:
*   Valid Frequency Range = 0.1MHz-10MHz
*   Ambient Temperature = 25 degC
*   Inductor Frequency Model
*   Use model for Frequency Domain simulations
*======================================================================
.subckt LPS3314-154_freq port1 port2 PARAMS: Cpar=1.84pF Ind=150uH
X1 port1 port2 Model1A PARAMS:
+ R1=120
+ R2=4.1
+ C= {Cpar}
+ K1=0.00001
+ K2=40
+ K3= {Ind}
+ K4=0.95
+ K5=0.0000101
+ L=0
+ Is=0
+ a=0
+ L_Z0=0
+ L_EL=0
+ L_F0=0E6
+ PkZ=104890.998
.ends LPS3314-154_freq

*======================================================================
* SPICE Model generated by Coilcraft
* Coilcraft Part Number : LPS3314-154
* Inductance = 150uH
*======================================================================
* Model Parameters:
*   Valid Frequency Range = 0.1MHz-10MHz
*   Ambient Temperature = 25 degC
*   Inductor Impedance Model
*   Use model for Time Domain simulations
*======================================================================
.subckt LPS3314-154_imp port1 port2 PARAMS: Cpar=1.79pF Ind=150uH
X1 port1 port2 Model1D PARAMS:
+ R1=120
+ R2=4.1
+ C= {Cpar}
+ K1=0.00001
+ K2=40
+ K3= {Ind}
+ K4=0.95
+ K5=0.0000101
+ L=0
+ Is=0
+ a=0
+ L_Z0=0
+ L_EL=0
+ L_F0=0E6
+ PkZ=104890.998
.ends LPS3314-154_imp

*======================================================================
* SPICE Model generated by Coilcraft