*======================================================================
* SPICE Model generated by Coilcraft
* Coilcraft Part Number : LPS3015-102
* Inductance = 1uH
*======================================================================
* Model Parameters:
*   Valid Frequency Range = 0.1MHz-100MHz
*   Ambient Temperature = 25 degC
*   Inductor Frequency Model
*   Use model for Frequency Domain simulations
*======================================================================
.subckt LPS3015-102_freq port1 port2 PARAMS: Cpar=0.82pF Ind=1uH
X1 port1 port2 Model1A PARAMS:
+ R1=290
+ R2=0.075
+ C= {Cpar}
+ K1=0.00016
+ K2=0.369
+ K3= {Ind}
+ K4=0.024
+ K5=0.0000098
+ L=0
+ Is=0
+ a=0
+ L_Z0=0
+ L_EL=0
+ L_F0=0E6
+ PkZ=2123.75614
.ends LPS3015-102_freq

*======================================================================
* SPICE Model generated by Coilcraft
* Coilcraft Part Number : LPS3015-102
* Inductance = 1uH
*======================================================================
* Model Parameters:
*   Valid Frequency Range = 0.1MHz-100MHz
*   Ambient Temperature = 25 degC
*   Inductor Impedance Model
*   Use model for Time Domain simulations
*======================================================================
.subckt LPS3015-102_imp port1 port2 PARAMS: Cpar=0.67pF Ind=1uH
X1 port1 port2 Model1D PARAMS:
+ R1=290
+ R2=0.075
+ C= {Cpar}
+ K1=0.00016
+ K2=0.369
+ K3= {Ind}
+ K4=0.024
+ K5=0.0000098
+ L=0
+ Is=0
+ a=0
+ L_Z0=0
+ L_EL=0
+ L_F0=0E6
+ PkZ=2123.75614
.ends LPS3015-102_imp

*======================================================================
* SPICE Model generated by Coilcraft
* Coilcraft Part Number : LPS3015-152
* Inductance = 1.5uH
*======================================================================
* Model Parameters:
*   Valid Frequency Range = 0.1MHz-100MHz
*   Ambient Temperature = 25 degC
*   Inductor Frequency Model
*   Use model for Frequency Domain simulations
*======================================================================
.subckt LPS3015-152_freq port1 port2 PARAMS: Cpar=2.15pF Ind=1.5uH
X1 port1 port2 Model1A PARAMS:
+ R1=100
+ R2=0.1
+ C= {Cpar}
+ K1=0.00011
+ K2=0.389
+ K3= {Ind}
+ K4=0.043
+ K5=0.0000098
+ L=0
+ Is=0
+ a=0
+ L_Z0=0
+ L_EL=0
+ L_F0=0E6
+ PkZ=2291.86574
.ends LPS3015-152_freq

*======================================================================
* SPICE Model generated by Coilcraft
* Coilcraft Part Number : LPS3015-152
* Inductance = 1.5uH
*======================================================================
* Model Parameters:
*   Valid Frequency Range = 0.1MHz-100MHz
*   Ambient Temperature = 25 degC
*   Inductor Impedance Model
*   Use model for Time Domain simulations
*======================================================================
.subckt LPS3015-152_imp port1 port2 PARAMS: Cpar=1.73pF Ind=1.5uH
X1 port1 port2 Model1D PARAMS:
+ R1=100
+ R2=0.1
+ C= {Cpar}
+ K1=0.00011
+ K2=0.389
+ K3= {Ind}
+ K4=0.043
+ K5=0.0000098
+ L=0
+ Is=0
+ a=0
+ L_Z0=0
+ L_EL=0
+ L_F0=0E6
+ PkZ=2291.86574
.ends LPS3015-152_imp

*======================================================================
* SPICE Model generated by Coilcraft
* Coilcraft Part Number : LPS3015-182
* Inductance = 1.8uH
*======================================================================
* Model Parameters:
*   Valid Frequency Range = 0.1MHz-100MHz
*   Ambient Temperature = 25 degC
*   Inductor Frequency Model
*   Use model for Frequency Domain simulations
*======================================================================
.subckt LPS3015-182_freq port1 port2 PARAMS: Cpar=1.13pF Ind=1.8uH
X1 port1 port2 Model1A PARAMS:
+ R1=95
+ R2=0.1
+ C= {Cpar}
+ K1=0.0003
+ K2=0.51
+ K3= {Ind}
+ K4=0.052
+ K5=0.0000095
+ L=0
+ Is=0
+ a=0
+ L_Z0=0
+ L_EL=0
+ L_F0=0E6
+ PkZ=3961.11183
.ends LPS3015-182_freq

*======================================================================
* SPICE Model generated by Coilcraft
* Coilcraft Part Number : LPS3015-182
* Inductance = 1.8uH
*======================================================================
* Model Parameters:
*   Valid Frequency Range = 0.1MHz-100MHz
*   Ambient Temperature = 25 degC
*   Inductor Impedance Model
*   Use model for Time Domain simulations
*======================================================================
.subckt LPS3015-182_imp port1 port2 PARAMS: Cpar=0.90pF Ind=1.8uH
X1 port1 port2 Model1D PARAMS:
+ R1=95
+ R2=0.1
+ C= {Cpar}
+ K1=0.0003
+ K2=0.51
+ K3= {Ind}
+ K4=0.052
+ K5=0.0000095
+ L=0
+ Is=0
+ a=0
+ L_Z0=0
+ L_EL=0
+ L_F0=0E6
+ PkZ=3961.11183
.ends LPS3015-182_imp

*======================================================================
* SPICE Model generated by Coilcraft
* Coilcraft Part Number : LPS3015-222
* Inductance = 2.2uH
*======================================================================
* Model Parameters:
*   Valid Frequency Range = 0.1MHz-100MHz
*   Ambient Temperature = 25 degC
*   Inductor Frequency Model
*   Use model for Frequency Domain simulations
*======================================================================
.subckt LPS3015-222_freq port1 port2 PARAMS: Cpar=2.63pF Ind=2.2uH
X1 port1 port2 Model1A PARAMS:
+ R1=115
+ R2=0.11
+ C= {Cpar}
+ K1=0.00016
+ K2=0.59
+ K3= {Ind}
+ K4=0.06
+ K5=0.0000098
+ L=0
+ Is=0
+ a=0
+ L_Z0=0
+ L_EL=0
+ L_F0=0E6
+ PkZ=2737.82462
.ends LPS3015-222_freq

*======================================================================
* SPICE Model generated by Coilcraft
* Coilcraft Part Number : LPS3015-222
* Inductance = 2.2uH
*======================================================================
* Model Parameters:
*   Valid Frequency Range = 0.1MHz-100MHz
*   Ambient Temperature = 25 degC
*   Inductor Impedance Model
*   Use model for Time Domain simulations
*======================================================================
.subckt LPS3015-222_imp port1 port2 PARAMS: Cpar=2.17pF Ind=2.2uH
X1 port1 port2 Model1D PARAMS:
+ R1=115
+ R2=0.11
+ C= {Cpar}
+ K1=0.00016
+ K2=0.59
+ K3= {Ind}
+ K4=0.06
+ K5=0.0000098
+ L=0
+ Is=0
+ a=0
+ L_Z0=0
+ L_EL=0
+ L_F0=0E6
+ PkZ=2737.82462
.ends LPS3015-222_imp

*======================================================================
* SPICE Model generated by Coilcraft
* Coilcraft Part Number : LPS3015-332
* Inductance = 3.3uH
*======================================================================
* Model Parameters:
*   Valid Frequency Range = 0.1MHz-100MHz
*   Ambient Temperature = 25 degC
*   Inductor Frequency Model
*   Use model for Frequency Domain simulations
*======================================================================
.subckt LPS3015-332_freq port1 port2 PARAMS: Cpar=1.96pF Ind=3.3uH
X1 port1 port2 Model1A PARAMS:
+ R1=85
+ R2=0.13
+ C= {Cpar}
+ K1=0.00017
+ K2=0.65
+ K3= {Ind}
+ K4=0.093
+ K5=0.0000098
+ L=0
+ Is=0
+ a=0
+ L_Z0=0
+ L_EL=0
+ L_F0=0E6
+ PkZ=4041.04787
.ends LPS3015-332_freq

*======================================================================
* SPICE Model generated by Coilcraft
* Coilcraft Part Number : LPS3015-332
* Inductance = 3.3uH
*======================================================================
* Model Parameters:
*   Valid Frequency Range = 0.1MHz-100MHz
*   Ambient Temperature = 25 degC
*   Inductor Impedance Model
*   Use model for Time Domain simulations
*======================================================================
.subckt LPS3015-332_imp port1 port2 PARAMS: Cpar=1.61pF Ind=3.3uH
X1 port1 port2 Model1D PARAMS:
+ R1=85
+ R2=0.13
+ C= {Cpar}
+ K1=0.00017
+ K2=0.65
+ K3= {Ind}
+ K4=0.093
+ K5=0.0000098
+ L=0
+ Is=0
+ a=0
+ L_Z0=0
+ L_EL=0
+ L_F0=0E6
+ PkZ=4041.04787
.ends LPS3015-332_imp

*======================================================================
* SPICE Model generated by Coilcraft
* Coilcraft Part Number : LPS3015-472
* Inductance = 4.7uH
*======================================================================
* Model Parameters:
*   Valid Frequency Range = 0.1MHz-100MHz
*   Ambient Temperature = 25 degC
*   Inductor Frequency Model
*   Use model for Frequency Domain simulations
*======================================================================
.subckt LPS3015-472_freq port1 port2 PARAMS: Cpar=1.05pF Ind=4.7uH
X1 port1 port2 Model1A PARAMS:
+ R1=35
+ R2=0.2
+ C= {Cpar}
+ K1=0.00031
+ K2=1.25
+ K3= {Ind}
+ K4=0.11
+ K5=0.0000098
+ L=0
+ Is=0
+ a=0
+ L_Z0=0
+ L_EL=0
+ L_F0=0E6
+ PkZ=9937.74746
.ends LPS3015-472_freq

*======================================================================
* SPICE Model generated by Coilcraft
* Coilcraft Part Number : LPS3015-472
* Inductance = 4.7uH
*======================================================================
* Model Parameters:
*   Valid Frequency Range = 0.1MHz-100MHz
*   Ambient Temperature = 25 degC
*   Inductor Impedance Model
*   Use model for Time Domain simulations
*======================================================================
.subckt LPS3015-472_imp port1 port2 PARAMS: Cpar=0.89pF Ind=4.7uH
X1 port1 port2 Model1D PARAMS:
+ R1=35
+ R2=0.2
+ C= {Cpar}
+ K1=0.00031
+ K2=1.25
+ K3= {Ind}
+ K4=0.11
+ K5=0.0000098
+ L=0
+ Is=0
+ a=0
+ L_Z0=0
+ L_EL=0
+ L_F0=0E6
+ PkZ=9937.74746
.ends LPS3015-472_imp

*======================================================================
* SPICE Model generated by Coilcraft
* Coilcraft Part Number : LPS3015-682
* Inductance = 6.8uH
*======================================================================
* Model Parameters:
*   Valid Frequency Range = 0.1MHz-100MHz
*   Ambient Temperature = 25 degC
*   Inductor Frequency Model
*   Use model for Frequency Domain simulations
*======================================================================
.subckt LPS3015-682_freq port1 port2 PARAMS: Cpar=2.43pF Ind=6.8uH
X1 port1 port2 Model1A PARAMS:
+ R1=70
+ R2=0.3
+ C= {Cpar}
+ K1=0.00012
+ K2=1.38
+ K3= {Ind}
+ K4=0.147
+ K5=0.0000099
+ L=0
+ Is=0
+ a=0
+ L_Z0=0
+ L_EL=0
+ L_F0=0E6
+ PkZ=7098.554
.ends LPS3015-682_freq

*======================================================================
* SPICE Model generated by Coilcraft
* Coilcraft Part Number : LPS3015-682
* Inductance = 6.8uH
*======================================================================
* Model Parameters:
*   Valid Frequency Range = 0.1MHz-100MHz
*   Ambient Temperature = 25 degC
*   Inductor Impedance Model
*   Use model for Time Domain simulations
*======================================================================
.subckt LPS3015-682_imp port1 port2 PARAMS: Cpar=2.12pF Ind=6.8uH
X1 port1 port2 Model1D PARAMS:
+ R1=70
+ R2=0.3
+ C= {Cpar}
+ K1=0.00012
+ K2=1.38
+ K3= {Ind}
+ K4=0.147
+ K5=0.0000099
+ L=0
+ Is=0
+ a=0
+ L_Z0=0
+ L_EL=0
+ L_F0=0E6
+ PkZ=7098.554
.ends LPS3015-682_imp

*======================================================================
* SPICE Model generated by Coilcraft
* Coilcraft Part Number : LPS3015-103
* Inductance = 10uH
*======================================================================
* Model Parameters:
*   Valid Frequency Range = 0.1MHz-100MHz
*   Ambient Temperature = 25 degC
*   Inductor Frequency Model
*   Use model for Frequency Domain simulations
*======================================================================
.subckt LPS3015-103_freq port1 port2 PARAMS: Cpar=1.62pF Ind=10uH
X1 port1 port2 Model1A PARAMS:
+ R1=60
+ R2=0.44
+ C= {Cpar}
+ K1=0.00009
+ K2=1.96
+ K3= {Ind}
+ K4=0.198
+ K5=0.0000099
+ L=0
+ Is=0
+ a=0
+ L_Z0=0
+ L_EL=0
+ L_F0=0E6
+ PkZ=11142.3041
.ends LPS3015-103_freq

*======================================================================
* SPICE Model generated by Coilcraft
* Coilcraft Part Number : LPS3015-103
* Inductance = 10uH
*======================================================================
* Model Parameters:
*   Valid Frequency Range = 0.1MHz-100MHz
*   Ambient Temperature = 25 degC
*   Inductor Impedance Model
*   Use model for Time Domain simulations
*======================================================================
.subckt LPS3015-103_imp port1 port2 PARAMS: Cpar=1.43pF Ind=10uH
X1 port1 port2 Model1D PARAMS:
+ R1=60
+ R2=0.44
+ C= {Cpar}
+ K1=0.00009
+ K2=1.96
+ K3= {Ind}
+ K4=0.198
+ K5=0.0000099
+ L=0
+ Is=0
+ a=0
+ L_Z0=0
+ L_EL=0
+ L_F0=0E6
+ PkZ=11142.3041
.ends LPS3015-103_imp

*======================================================================
* SPICE Model generated by Coilcraft
* Coilcraft Part Number : LPS3015-153
* Inductance = 15uH
*======================================================================
* Model Parameters:
*   Valid Frequency Range = 0.1MHz-100MHz
*   Ambient Temperature = 25 degC
*   Inductor Frequency Model
*   Use model for Frequency Domain simulations
*======================================================================
.subckt LPS3015-153_freq port1 port2 PARAMS: Cpar=1.68pF Ind=15uH
X1 port1 port2 Model1A PARAMS:
+ R1=20
+ R2=0.7
+ C= {Cpar}
+ K1=0.00003
+ K2=5.2
+ K3= {Ind}
+ K4=0.179
+ K5=0.00000995
+ L=0
+ Is=0
+ a=0
+ L_Z0=0
+ L_EL=0
+ L_F0=0E6
+ PkZ=27795.6526
.ends LPS3015-153_freq

*======================================================================
* SPICE Model generated by Coilcraft
* Coilcraft Part Number : LPS3015-153
* Inductance = 15uH
*======================================================================
* Model Parameters:
*   Valid Frequency Range = 0.1MHz-100MHz
*   Ambient Temperature = 25 degC
*   Inductor Impedance Model
*   Use model for Time Domain simulations
*======================================================================
.subckt LPS3015-153_imp port1 port2 PARAMS: Cpar=1.56pF Ind=15uH
X1 port1 port2 Model1D PARAMS:
+ R1=20
+ R2=0.7
+ C= {Cpar}
+ K1=0.00003
+ K2=5.2
+ K3= {Ind}
+ K4=0.179
+ K5=0.00000995
+ L=0
+ Is=0
+ a=0
+ L_Z0=0
+ L_EL=0
+ L_F0=0E6
+ PkZ=27795.6526
.ends LPS3015-153_imp

*======================================================================
* SPICE Model generated by Coilcraft
* Coilcraft Part Number : LPS3015-183
* Inductance = 18uH
*======================================================================
* Model Parameters:
*   Valid Frequency Range = 0.1MHz-60MHz
*   Ambient Temperature = 25 degC
*   Inductor Frequency Model
*   Use model for Frequency Domain simulations
*======================================================================
.subckt LPS3015-183_freq port1 port2 PARAMS: Cpar=2.49pF Ind=18uH
X1 port1 port2 Model1A PARAMS:
+ R1=160
+ R2=0.75
+ C= {Cpar}
+ K1=0.0001
+ K2=2.4
+ K3= {Ind}
+ K4=0.292
+ K5=0.00000982
+ L=0
+ Is=0
+ a=0
+ L_Z0=0
+ L_EL=0
+ L_F0=0E6
+ PkZ=9278.95701
.ends LPS3015-183_freq

*======================================================================
* SPICE Model generated by Coilcraft
* Coilcraft Part Number : LPS3015-183
* Inductance = 18uH
*======================================================================
* Model Parameters:
*   Valid Frequency Range = 0.1MHz-60MHz
*   Ambient Temperature = 25 degC
*   Inductor Impedance Model
*   Use model for Time Domain simulations
*======================================================================
.subckt LPS3015-183_imp port1 port2 PARAMS: Cpar=2.27pF Ind=18uH
X1 port1 port2 Model1D PARAMS:
+ R1=160
+ R2=0.75
+ C= {Cpar}
+ K1=0.0001
+ K2=2.4
+ K3= {Ind}
+ K4=0.292
+ K5=0.00000982
+ L=0
+ Is=0
+ a=0
+ L_Z0=0
+ L_EL=0
+ L_F0=0E6
+ PkZ=9278.95701
.ends LPS3015-183_imp

*======================================================================
* SPICE Model generated by Coilcraft
* Coilcraft Part Number : LPS3015-223
* Inductance = 22uH
*======================================================================
* Model Parameters:
*   Valid Frequency Range = 0.1MHz-30MHz
*   Ambient Temperature = 25 degC
*   Inductor Frequency Model
*   Use model for Frequency Domain simulations
*======================================================================
.subckt LPS3015-223_freq port1 port2 PARAMS: Cpar=3.26pF Ind=22uH
X1 port1 port2 Model1A PARAMS:
+ R1=560
+ R2=0.825
+ C= {Cpar}
+ K1=0.00005
+ K2=2.98
+ K3= {Ind}
+ K4=0.33
+ K5=0.00000984
+ L=0
+ Is=0
+ a=0
+ L_Z0=0
+ L_EL=0
+ L_F0=0E6
+ PkZ=6144.64749
.ends LPS3015-223_freq

*======================================================================
* SPICE Model generated by Coilcraft
* Coilcraft Part Number : LPS3015-223
* Inductance = 22uH
*======================================================================
* Model Parameters:
*   Valid Frequency Range = 0.1MHz-30MHz
*   Ambient Temperature = 25 degC
*   Inductor Impedance Model
*   Use model for Time Domain simulations
*======================================================================
.subckt LPS3015-223_imp port1 port2 PARAMS: Cpar=3.00pF Ind=22uH
X1 port1 port2 Model1D PARAMS:
+ R1=560
+ R2=0.825
+ C= {Cpar}
+ K1=0.00005
+ K2=2.98
+ K3= {Ind}
+ K4=0.33
+ K5=0.00000984
+ L=0
+ Is=0
+ a=0
+ L_Z0=0
+ L_EL=0
+ L_F0=0E6
+ PkZ=6144.64749
.ends LPS3015-223_imp

*======================================================================
* SPICE Model generated by Coilcraft
* Coilcraft Part Number : LPS3015-333
* Inductance = 33uH
*======================================================================
* Model Parameters:
*   Valid Frequency Range = 0.1MHz-30MHz
*   Ambient Temperature = 25 degC
*   Inductor Frequency Model
*   Use model for Frequency Domain simulations
*======================================================================
.subckt LPS3015-333_freq port1 port2 PARAMS: Cpar=2.58pF Ind=33uH
X1 port1 port2 Model1A PARAMS:
+ R1=180
+ R2=1.3
+ C= {Cpar}
+ K1=0.00018
+ K2=6.5
+ K3= {Ind}
+ K4=0.48
+ K5=0.00000992
+ L=0
+ Is=0
+ a=0
+ L_Z0=0
+ L_EL=0
+ L_F0=0E6
+ PkZ=19391.3466
.ends LPS3015-333_freq

*======================================================================
* SPICE Model generated by Coilcraft
* Coilcraft Part Number : LPS3015-333
* Inductance = 33uH
*======================================================================
* Model Parameters:
*   Valid Frequency Range = 0.1MHz-30MHz
*   Ambient Temperature = 25 degC
*   Inductor Impedance Model
*   Use model for Time Domain simulations
*======================================================================
.subckt LPS3015-333_imp port1 port2 PARAMS: Cpar=2.39pF Ind=33uH
X1 port1 port2 Model1D PARAMS:
+ R1=180
+ R2=1.3
+ C= {Cpar}
+ K1=0.00018
+ K2=6.5
+ K3= {Ind}
+ K4=0.48
+ K5=0.00000992
+ L=0
+ Is=0
+ a=0
+ L_Z0=0
+ L_EL=0
+ L_F0=0E6
+ PkZ=19391.3466
.ends LPS3015-333_imp

*======================================================================
* SPICE Model generated by Coilcraft
* Coilcraft Part Number : LPS3015-473
* Inductance = 47uH
*======================================================================
* Model Parameters:
*   Valid Frequency Range = 0.1MHz-20MHz
*   Ambient Temperature = 25 degC
*   Inductor Frequency Model
*   Use model for Frequency Domain simulations
*======================================================================
.subckt LPS3015-473_freq port1 port2 PARAMS: Cpar=2.16pF Ind=47uH
X1 port1 port2 Model1A PARAMS:
+ R1=70
+ R2=1.55
+ C= {Cpar}
+ K1=0.0007
+ K2=15
+ K3= {Ind}
+ K4=0.45
+ K5=0.0000099
+ L=0
+ Is=0
+ a=0
+ L_Z0=0
+ L_EL=0
+ L_F0=0E6
+ PkZ=49793.6899
.ends LPS3015-473_freq

*======================================================================
* SPICE Model generated by Coilcraft
* Coilcraft Part Number : LPS3015-473
* Inductance = 47uH
*======================================================================
* Model Parameters:
*   Valid Frequency Range = 0.1MHz-20MHz
*   Ambient Temperature = 25 degC
*   Inductor Impedance Model
*   Use model for Time Domain simulations
*======================================================================
.subckt LPS3015-473_imp port1 port2 PARAMS: Cpar=2.06pF Ind=47uH
X1 port1 port2 Model1D PARAMS:
+ R1=70
+ R2=1.55
+ C= {Cpar}
+ K1=0.0007
+ K2=15
+ K3= {Ind}
+ K4=0.45
+ K5=0.0000099
+ L=0
+ Is=0
+ a=0
+ L_Z0=0
+ L_EL=0
+ L_F0=0E6
+ PkZ=49793.6899
.ends LPS3015-473_imp

*======================================================================
* SPICE Model generated by Coilcraft
* Coilcraft Part Number : LPS3015-683
* Inductance = 68uH
*======================================================================
* Model Parameters:
*   Valid Frequency Range = 0.1MHz-20MHz
*   Ambient Temperature = 25 degC
*   Inductor Frequency Model
*   Use model for Frequency Domain simulations
*======================================================================
.subckt LPS3015-683_freq port1 port2 PARAMS: Cpar=2.36pF Ind=68uH
X1 port1 port2 Model1A PARAMS:
+ R1=50
+ R2=2.25
+ C= {Cpar}
+ K1=0.0003
+ K2=22
+ K3= {Ind}
+ K4=0.6
+ K5=0.00001
+ L=0
+ Is=0
+ a=0
+ L_Z0=0
+ L_EL=0
+ L_F0=0E6
+ PkZ=68794.4847
.ends LPS3015-683_freq

*======================================================================
* SPICE Model generated by Coilcraft
* Coilcraft Part Number : LPS3015-683
* Inductance = 68uH
*======================================================================
* Model Parameters:
*   Valid Frequency Range = 0.1MHz-20MHz
*   Ambient Temperature = 25 degC
*   Inductor Impedance Model
*   Use model for Time Domain simulations
*======================================================================
.subckt LPS3015-683_imp port1 port2 PARAMS: Cpar=2.26pF Ind=68uH
X1 port1 port2 Model1D PARAMS:
+ R1=50
+ R2=2.25
+ C= {Cpar}
+ K1=0.0003
+ K2=22
+ K3= {Ind}
+ K4=0.6
+ K5=0.00001
+ L=0
+ Is=0
+ a=0
+ L_Z0=0
+ L_EL=0
+ L_F0=0E6
+ PkZ=68794.4847
.ends LPS3015-683_imp

*======================================================================
* SPICE Model generated by Coilcraft
* Coilcraft Part Number : LPS3015-104
* Inductance = 100uH
*======================================================================
* Model Parameters:
*   Valid Frequency Range = 0.1MHz-20MHz
*   Ambient Temperature = 25 degC
*   Inductor Frequency Model
*   Use model for Frequency Domain simulations
*======================================================================
.subckt LPS3015-104_freq port1 port2 PARAMS: Cpar=2.09pF Ind=100uH
X1 port1 port2 Model1A PARAMS:
+ R1=70
+ R2=3.4
+ C= {Cpar}
+ K1=0.0006
+ K2=30
+ K3= {Ind}
+ K4=0.5
+ K5=0.00001
+ L=0
+ Is=0
+ a=0
+ L_Z0=0
+ L_EL=0
+ L_F0=0E6
+ PkZ=86751.2131
.ends LPS3015-104_freq

*======================================================================
* SPICE Model generated by Coilcraft
* Coilcraft Part Number : LPS3015-104
* Inductance = 100uH
*======================================================================
* Model Parameters:
*   Valid Frequency Range = 0.1MHz-20MHz
*   Ambient Temperature = 25 degC
*   Inductor Impedance Model
*   Use model for Time Domain simulations
*======================================================================
.subckt LPS3015-104_imp port1 port2 PARAMS: Cpar=2.04pF Ind=100uH
X1 port1 port2 Model1D PARAMS:
+ R1=70
+ R2=3.4
+ C= {Cpar}
+ K1=0.0006
+ K2=30
+ K3= {Ind}
+ K4=0.5
+ K5=0.00001
+ L=0
+ Is=0
+ a=0
+ L_Z0=0
+ L_EL=0
+ L_F0=0E6
+ PkZ=86751.2131
.ends LPS3015-104_imp

*======================================================================
* SPICE Model generated by Coilcraft
* Coilcraft Part Number : LPS3015-124
* Inductance = 120uH
*======================================================================
* Model Parameters:
*   Valid Frequency Range = 0.1MHz-10MHz
*   Ambient Temperature = 25 degC
*   Inductor Frequency Model
*   Use model for Frequency Domain simulations
*======================================================================
.subckt LPS3015-124_freq port1 port2 PARAMS: Cpar=3.08pF Ind=120uH
X1 port1 port2 Model1A PARAMS:
+ R1=400
+ R2=4.6
+ C= {Cpar}
+ K1=0.0001
+ K2=18
+ K3= {Ind}
+ K4=1.63
+ K5=0.00000997
+ L=0
+ Is=0
+ a=0
+ L_Z0=0
+ L_EL=0
+ L_F0=0E6
+ PkZ=33444.0215
.ends LPS3015-124_freq

*======================================================================
* SPICE Model generated by Coilcraft
* Coilcraft Part Number : LPS3015-124
* Inductance = 120uH
*======================================================================
* Model Parameters:
*   Valid Frequency Range = 0.1MHz-10MHz
*   Ambient Temperature = 25 degC
*   Inductor Impedance Model
*   Use model for Time Domain simulations
*======================================================================
.subckt LPS3015-124_imp port1 port2 PARAMS: Cpar=2.90pF Ind=120uH
X1 port1 port2 Model1D PARAMS:
+ R1=400
+ R2=4.6
+ C= {Cpar}
+ K1=0.0001
+ K2=18
+ K3= {Ind}
+ K4=1.63
+ K5=0.00000997
+ L=0
+ Is=0
+ a=0
+ L_Z0=0
+ L_EL=0
+ L_F0=0E6
+ PkZ=33444.0215
.ends LPS3015-124_imp

*======================================================================
* SPICE Model generated by Coilcraft
* Coilcraft Part Number : LPS3015-154
* Inductance = 150uH
*======================================================================
* Model Parameters:
*   Valid Frequency Range = 0.1MHz-10MHz
*   Ambient Temperature = 25 degC
*   Inductor Frequency Model
*   Use model for Frequency Domain simulations
*======================================================================
.subckt LPS3015-154_freq port1 port2 PARAMS: Cpar=5.84pF Ind=150uH
X1 port1 port2 Model1A PARAMS:
+ R1=360
+ R2=6.1
+ C= {Cpar}
+ K1=0.0006
+ K2=31.5
+ K3= {Ind}
+ K4=1.63
+ K5=0.000102
+ L=0
+ Is=0
+ a=0
+ L_Z0=0
+ L_EL=0
+ L_F0=0E6
+ PkZ=35094.5656
.ends LPS3015-154_freq

*======================================================================
* SPICE Model generated by Coilcraft
* Coilcraft Part Number : LPS3015-154
* Inductance = 150uH
*======================================================================
* Model Parameters:
*   Valid Frequency Range = 0.1MHz-10MHz
*   Ambient Temperature = 25 degC
*   Inductor Impedance Model
*   Use model for Time Domain simulations
*======================================================================
.subckt LPS3015-154_imp port1 port2 PARAMS: Cpar=5.44pF Ind=150uH
X1 port1 port2 Model1D PARAMS:
+ R1=360
+ R2=6.1
+ C= {Cpar}
+ K1=0.0006
+ K2=31.5
+ K3= {Ind}
+ K4=1.63
+ K5=0.000102
+ L=0
+ Is=0
+ a=0
+ L_Z0=0
+ L_EL=0
+ L_F0=0E6
+ PkZ=35094.5656
.ends LPS3015-154_imp

*======================================================================
* SPICE Model generated by Coilcraft
* Coilcraft Part Number : LPS3015-184
* Inductance = 180uH
*======================================================================
* Model Parameters:
*   Valid Frequency Range = 0.1MHz-10MHz
*   Ambient Temperature = 25 degC
*   Inductor Frequency Model
*   Use model for Frequency Domain simulations
*======================================================================
.subckt LPS3015-184_freq port1 port2 PARAMS: Cpar=3.1pF Ind=180uH
X1 port1 port2 Model1A PARAMS:
+ R1=150
+ R2=8.6
+ C= {Cpar}
+ K1=0.0025
+ K2=38
+ K3= {Ind}
+ K4=2.63
+ K5=0.00001
+ L=0
+ Is=0
+ a=0
+ L_Z0=0
+ L_EL=0
+ L_F0=0E6
+ PkZ=77818.2764
.ends LPS3015-184_freq

*======================================================================
* SPICE Model generated by Coilcraft
* Coilcraft Part Number : LPS3015-184
* Inductance = 180uH
*======================================================================
* Model Parameters:
*   Valid Frequency Range = 0.1MHz-10MHz
*   Ambient Temperature = 25 degC
*   Inductor Impedance Model
*   Use model for Time Domain simulations
*======================================================================
.subckt LPS3015-184_imp port1 port2 PARAMS: Cpar=2.91pF Ind=180uH
X1 port1 port2 Model1D PARAMS:
+ R1=150
+ R2=8.6
+ C= {Cpar}
+ K1=0.0025
+ K2=38
+ K3= {Ind}
+ K4=2.63
+ K5=0.00001
+ L=0
+ Is=0
+ a=0
+ L_Z0=0
+ L_EL=0
+ L_F0=0E6
+ PkZ=77818.2764
.ends LPS3015-184_imp

*======================================================================
* SPICE Model generated by Coilcraft
* Coilcraft Part Number : LPS3015-224
* Inductance = 220uH
*======================================================================
* Model Parameters:
*   Valid Frequency Range = 0.1MHz-9MHz
*   Ambient Temperature = 25 degC
*   Inductor Frequency Model
*   Use model for Frequency Domain simulations
*======================================================================
.subckt LPS3015-224_freq port1 port2 PARAMS: Cpar=6.53pF Ind=220uH
X1 port1 port2 Model1A PARAMS:
+ R1=1150
+ R2=9.5
+ C= {Cpar}
+ K1=0.0015
+ K2=38
+ K3= {Ind}
+ K4=2.63
+ K5=0.0000103
+ L=0
+ Is=0
+ a=0
+ L_Z0=0
+ L_EL=0
+ L_F0=0E6
+ PkZ=20998.8028
.ends LPS3015-224_freq

*======================================================================
* SPICE Model generated by Coilcraft
* Coilcraft Part Number : LPS3015-224
* Inductance = 220uH
*======================================================================
* Model Parameters:
*   Valid Frequency Range = 0.1MHz-9MHz
*   Ambient Temperature = 25 degC
*   Inductor Impedance Model
*   Use model for Time Domain simulations
*======================================================================
.subckt LPS3015-224_imp port1 port2 PARAMS: Cpar=6.24pF Ind=220uH
X1 port1 port2 Model1D PARAMS:
+ R1=1150
+ R2=9.5
+ C= {Cpar}
+ K1=0.0015
+ K2=38
+ K3= {Ind}
+ K4=2.63
+ K5=0.0000103
+ L=0
+ Is=0
+ a=0
+ L_Z0=0
+ L_EL=0
+ L_F0=0E6
+ PkZ=20998.8028
.ends LPS3015-224_imp

*======================================================================
* SPICE Model generated by Coilcraft
* Coilcraft Part Number : LPS3015-334