*======================================================================
* SPICE Model generated by Coilcraft
* Coilcraft Part Number : LPS3010-681
* Inductance = 0.68uH
*======================================================================
* Model Parameters:
*   Valid Frequency Range = 0.1MHz-100MHz
*   Ambient Temperature = 25 degC
*   Inductor Frequency Model
*   Use model for Frequency Domain simulations
*======================================================================
.subckt LPS3010-681_freq port1 port2 PARAMS: Cpar=0.812pF Ind=0.68uH
X1 port1 port2 Model1A PARAMS:
+ R1=400
+ R2=0.08
+ C= {Cpar}
+ K1=0.000001
+ K2=0.14
+ K3= {Ind}
+ K4=0.016
+ K5=0.0000098
+ L=0
+ Is=0
+ a=0
+ L_Z0=0
+ L_EL=0
+ L_F0=0E6
+ PkZ=1036.28984
.ends LPS3010-681_freq

*======================================================================
* SPICE Model generated by Coilcraft
* Coilcraft Part Number : LPS3010-681
* Inductance = 0.68uH
*======================================================================
* Model Parameters:
*   Valid Frequency Range = 0.1MHz-100MHz
*   Ambient Temperature = 25 degC
*   Inductor Impedance Model
*   Use model for Time Domain simulations
*======================================================================
.subckt LPS3010-681_imp port1 port2 PARAMS: Cpar=0.67pF Ind=0.68uH
X1 port1 port2 Model1D PARAMS:
+ R1=400
+ R2=0.08
+ C= {Cpar}
+ K1=0.000001
+ K2=0.14
+ K3= {Ind}
+ K4=0.016
+ K5=0.0000098
+ L=0
+ Is=0
+ a=0
+ L_Z0=0
+ L_EL=0
+ L_F0=0E6
+ PkZ=1036.28984
.ends LPS3010-681_imp

*======================================================================
* SPICE Model generated by Coilcraft
* Coilcraft Part Number : LPS3010-102
* Inductance = 1uH
*======================================================================
* Model Parameters:
*   Valid Frequency Range = 0.1MHz-100MHz
*   Ambient Temperature = 25 degC
*   Inductor Frequency Model
*   Use model for Frequency Domain simulations
*======================================================================
.subckt LPS3010-102_freq port1 port2 PARAMS: Cpar=1.72pF Ind=1uH
X1 port1 port2 Model1A PARAMS:
+ R1=190
+ R2=0.085
+ C= {Cpar}
+ K1=0.000001
+ K2=0.173
+ K3= {Ind}
+ K4=0.026
+ K5=0.0000098
+ L=0
+ Is=0
+ a=0
+ L_Z0=0
+ L_EL=0
+ L_F0=0E6
+ PkZ=1139.64294
.ends LPS3010-102_freq

*======================================================================
* SPICE Model generated by Coilcraft
* Coilcraft Part Number : LPS3010-102
* Inductance = 1uH
*======================================================================
* Model Parameters:
*   Valid Frequency Range = 0.1MHz-100MHz
*   Ambient Temperature = 25 degC
*   Inductor Impedance Model
*   Use model for Time Domain simulations
*======================================================================
.subckt LPS3010-102_imp port1 port2 PARAMS: Cpar=1.40pF Ind=1uH
X1 port1 port2 Model1D PARAMS:
+ R1=190
+ R2=0.085
+ C= {Cpar}
+ K1=0.000001
+ K2=0.173
+ K3= {Ind}
+ K4=0.026
+ K5=0.0000098
+ L=0
+ Is=0
+ a=0
+ L_Z0=0
+ L_EL=0
+ L_F0=0E6
+ PkZ=1139.64294
.ends LPS3010-102_imp

*======================================================================
* SPICE Model generated by Coilcraft
* Coilcraft Part Number : LPS3010-152
* Inductance = 1.5uH
*======================================================================
* Model Parameters:
*   Valid Frequency Range = 0.1MHz-100MHz
*   Ambient Temperature = 25 degC
*   Inductor Frequency Model
*   Use model for Frequency Domain simulations
*======================================================================
.subckt LPS3010-152_freq port1 port2 PARAMS: Cpar=0.852pF Ind=1.5uH
X1 port1 port2 Model1A PARAMS:
+ R1=210
+ R2=0.12
+ C= {Cpar}
+ K1=0.0001
+ K2=0.32
+ K3= {Ind}
+ K4=0.034
+ K5=0.0000096
+ L=0
+ Is=0
+ a=0
+ L_Z0=0
+ L_EL=0
+ L_F0=0E6
+ PkZ=2550.98599
.ends LPS3010-152_freq

*======================================================================
* SPICE Model generated by Coilcraft
* Coilcraft Part Number : LPS3010-152
* Inductance = 1.5uH
*======================================================================
* Model Parameters:
*   Valid Frequency Range = 0.1MHz-100MHz
*   Ambient Temperature = 25 degC
*   Inductor Impedance Model
*   Use model for Time Domain simulations
*======================================================================
.subckt LPS3010-152_imp port1 port2 PARAMS: Cpar=0.71pF Ind=1.5uH
X1 port1 port2 Model1D PARAMS:
+ R1=210
+ R2=0.12
+ C= {Cpar}
+ K1=0.0001
+ K2=0.32
+ K3= {Ind}
+ K4=0.034
+ K5=0.0000096
+ L=0
+ Is=0
+ a=0
+ L_Z0=0
+ L_EL=0
+ L_F0=0E6
+ PkZ=2550.98599
.ends LPS3010-152_imp

*======================================================================
* SPICE Model generated by Coilcraft
* Coilcraft Part Number : LPS3010-182
* Inductance = 1.8uH
*======================================================================
* Model Parameters:
*   Valid Frequency Range = 0.1MHz-100MHz
*   Ambient Temperature = 25 degC
*   Inductor Frequency Model
*   Use model for Frequency Domain simulations
*======================================================================
.subckt LPS3010-182_freq port1 port2 PARAMS: Cpar=1.6pF Ind=1.8uH
X1 port1 port2 Model1A PARAMS:
+ R1=140
+ R2=0.15
+ C= {Cpar}
+ K1=0.00008
+ K2=0.454
+ K3= {Ind}
+ K4=0.045
+ K5=0.0000098
+ L=0
+ Is=0
+ a=0
+ L_Z0=0
+ L_EL=0
+ L_F0=0E6
+ PkZ=2734.723
.ends LPS3010-182_freq

*======================================================================
* SPICE Model generated by Coilcraft
* Coilcraft Part Number : LPS3010-182
* Inductance = 1.8uH
*======================================================================
* Model Parameters:
*   Valid Frequency Range = 0.1MHz-100MHz
*   Ambient Temperature = 25 degC
*   Inductor Impedance Model
*   Use model for Time Domain simulations
*======================================================================
.subckt LPS3010-182_imp port1 port2 PARAMS: Cpar=1.33pF Ind=1.8uH
X1 port1 port2 Model1D PARAMS:
+ R1=140
+ R2=0.15
+ C= {Cpar}
+ K1=0.00008
+ K2=0.454
+ K3= {Ind}
+ K4=0.045
+ K5=0.0000098
+ L=0
+ Is=0
+ a=0
+ L_Z0=0
+ L_EL=0
+ L_F0=0E6
+ PkZ=2734.723
.ends LPS3010-182_imp

*======================================================================
* SPICE Model generated by Coilcraft
* Coilcraft Part Number : LPS3010-222
* Inductance = 2.2uH
*======================================================================
* Model Parameters:
*   Valid Frequency Range = 0.1MHz-100MHz
*   Ambient Temperature = 25 degC
*   Inductor Frequency Model
*   Use model for Frequency Domain simulations
*======================================================================
.subckt LPS3010-222_freq port1 port2 PARAMS: Cpar=1.23pF Ind=2.2uH
X1 port1 port2 Model1A PARAMS:
+ R1=210
+ R2=0.22
+ C= {Cpar}
+ K1=0.00008
+ K2=0.495
+ K3= {Ind}
+ K4=0.048
+ K5=0.0000098
+ L=0
+ Is=0
+ a=0
+ L_Z0=0
+ L_EL=0
+ L_F0=0E6
+ PkZ=3004.62244
.ends LPS3010-222_freq

*======================================================================
* SPICE Model generated by Coilcraft
* Coilcraft Part Number : LPS3010-222
* Inductance = 2.2uH
*======================================================================
* Model Parameters:
*   Valid Frequency Range = 0.1MHz-100MHz
*   Ambient Temperature = 25 degC
*   Inductor Impedance Model
*   Use model for Time Domain simulations
*======================================================================
.subckt LPS3010-222_imp port1 port2 PARAMS: Cpar=1.05pF Ind=2.2uH
X1 port1 port2 Model1D PARAMS:
+ R1=210
+ R2=0.22
+ C= {Cpar}
+ K1=0.00008
+ K2=0.495
+ K3= {Ind}
+ K4=0.048
+ K5=0.0000098
+ L=0
+ Is=0
+ a=0
+ L_Z0=0
+ L_EL=0
+ L_F0=0E6
+ PkZ=3004.62244
.ends LPS3010-222_imp

*======================================================================
* SPICE Model generated by Coilcraft
* Coilcraft Part Number : LPS3010-332
* Inductance = 3.3uH
*======================================================================
* Model Parameters:
*   Valid Frequency Range = 0.1MHz-100MHz
*   Ambient Temperature = 25 degC
*   Inductor Frequency Model
*   Use model for Frequency Domain simulations
*======================================================================
.subckt LPS3010-332_freq port1 port2 PARAMS: Cpar=0.874pF Ind=3.3uH
X1 port1 port2 Model1A PARAMS:
+ R1=140
+ R2=0.22
+ C= {Cpar}
+ K1=0.0001
+ K2=0.768
+ K3= {Ind}
+ K4=0.08
+ K5=0.0000099
+ L=0
+ Is=0
+ a=0
+ L_Z0=0
+ L_EL=0
+ L_F0=0E6
+ PkZ=5776.89256
.ends LPS3010-332_freq

*======================================================================
* SPICE Model generated by Coilcraft
* Coilcraft Part Number : LPS3010-332
* Inductance = 3.3uH
*======================================================================
* Model Parameters:
*   Valid Frequency Range = 0.1MHz-100MHz
*   Ambient Temperature = 25 degC
*   Inductor Impedance Model
*   Use model for Time Domain simulations
*======================================================================
.subckt LPS3010-332_imp port1 port2 PARAMS: Cpar=0.73pF Ind=3.3uH
X1 port1 port2 Model1D PARAMS:
+ R1=140
+ R2=0.22
+ C= {Cpar}
+ K1=0.0001
+ K2=0.768
+ K3= {Ind}
+ K4=0.08
+ K5=0.0000099
+ L=0
+ Is=0
+ a=0
+ L_Z0=0
+ L_EL=0
+ L_F0=0E6
+ PkZ=5776.89256
.ends LPS3010-332_imp

*======================================================================
* SPICE Model generated by Coilcraft
* Coilcraft Part Number : LPS3010-472
* Inductance = 4.7uH
*======================================================================
* Model Parameters:
*   Valid Frequency Range = 0.1MHz-100MHz
*   Ambient Temperature = 25 degC
*   Inductor Frequency Model
*   Use model for Frequency Domain simulations
*======================================================================
.subckt LPS3010-472_freq port1 port2 PARAMS: Cpar=0.856pF Ind=4.7uH
X1 port1 port2 Model1A PARAMS:
+ R1=82
+ R2=0.3
+ C= {Cpar}
+ K1=0.00022
+ K2=0.98
+ K3= {Ind}
+ K4=0.118
+ K5=0.0000098
+ L=0
+ Is=0
+ a=0
+ L_Z0=0
+ L_EL=0
+ L_F0=0E6
+ PkZ=7824.70423
.ends LPS3010-472_freq

*======================================================================
* SPICE Model generated by Coilcraft
* Coilcraft Part Number : LPS3010-472
* Inductance = 4.7uH
*======================================================================
* Model Parameters:
*   Valid Frequency Range = 0.1MHz-100MHz
*   Ambient Temperature = 25 degC
*   Inductor Impedance Model
*   Use model for Time Domain simulations
*======================================================================
.subckt LPS3010-472_imp port1 port2 PARAMS: Cpar=0.71pF Ind=4.7uH
X1 port1 port2 Model1D PARAMS:
+ R1=82
+ R2=0.3
+ C= {Cpar}
+ K1=0.00022
+ K2=0.98
+ K3= {Ind}
+ K4=0.118
+ K5=0.0000098
+ L=0
+ Is=0
+ a=0
+ L_Z0=0
+ L_EL=0
+ L_F0=0E6
+ PkZ=7824.70423
.ends LPS3010-472_imp

*======================================================================
* SPICE Model generated by Coilcraft
* Coilcraft Part Number : LPS3010-562
* Inductance = 5.6uH
*======================================================================
* Model Parameters:
*   Valid Frequency Range = 0.1MHz-100MHz
*   Ambient Temperature = 25 degC
*   Inductor Frequency Model
*   Use model for Frequency Domain simulations
*======================================================================
.subckt LPS3010-562_freq port1 port2 PARAMS: Cpar=1.22pF Ind=5.6uH
X1 port1 port2 Model1A PARAMS:
+ R1=225
+ R2=0.4
+ C= {Cpar}
+ K1=0.00001
+ K2=1.44
+ K3= {Ind}
+ K4=0.135
+ K5=0.00001
+ L=0
+ Is=0
+ a=0
+ L_Z0=0
+ L_EL=0
+ L_F0=0E6
+ PkZ=7003.14525
.ends LPS3010-562_freq

*======================================================================
* SPICE Model generated by Coilcraft
* Coilcraft Part Number : LPS3010-562
* Inductance = 5.6uH
*======================================================================
* Model Parameters:
*   Valid Frequency Range = 0.1MHz-100MHz
*   Ambient Temperature = 25 degC
*   Inductor Impedance Model
*   Use model for Time Domain simulations
*======================================================================
.subckt LPS3010-562_imp port1 port2 PARAMS: Cpar=1.03pF Ind=5.6uH
X1 port1 port2 Model1D PARAMS:
+ R1=225
+ R2=0.4
+ C= {Cpar}
+ K1=0.00001
+ K2=1.44
+ K3= {Ind}
+ K4=0.135
+ K5=0.00001
+ L=0
+ Is=0
+ a=0
+ L_Z0=0
+ L_EL=0
+ L_F0=0E6
+ PkZ=7003.14525
.ends LPS3010-562_imp

*======================================================================
* SPICE Model generated by Coilcraft
* Coilcraft Part Number : LPS3010-682
* Inductance = 6.8uH
*======================================================================
* Model Parameters:
*   Valid Frequency Range = 0.1MHz-100MHz
*   Ambient Temperature = 25 degC
*   Inductor Frequency Model
*   Use model for Frequency Domain simulations
*======================================================================
.subckt LPS3010-682_freq port1 port2 PARAMS: Cpar=0.983pF Ind=6.8uH
X1 port1 port2 Model1A PARAMS:
+ R1=110
+ R2=0.45
+ C= {Cpar}
+ K1=0.0001
+ K2=1.76
+ K3= {Ind}
+ K4=0.118
+ K5=0.0000099
+ L=0
+ Is=0
+ a=0
+ L_Z0=0
+ L_EL=0
+ L_F0=0E6
+ PkZ=11324.0863
.ends LPS3010-682_freq

*======================================================================
* SPICE Model generated by Coilcraft
* Coilcraft Part Number : LPS3010-682
* Inductance = 6.8uH
*======================================================================
* Model Parameters:
*   Valid Frequency Range = 0.1MHz-100MHz
*   Ambient Temperature = 25 degC
*   Inductor Impedance Model
*   Use model for Time Domain simulations
*======================================================================
.subckt LPS3010-682_imp port1 port2 PARAMS: Cpar=0.87pF Ind=6.8uH
X1 port1 port2 Model1D PARAMS:
+ R1=110
+ R2=0.45
+ C= {Cpar}
+ K1=0.0001
+ K2=1.76
+ K3= {Ind}
+ K4=0.118
+ K5=0.0000099
+ L=0
+ Is=0
+ a=0
+ L_Z0=0
+ L_EL=0
+ L_F0=0E6
+ PkZ=11324.0863
.ends LPS3010-682_imp

*======================================================================
* SPICE Model generated by Coilcraft
* Coilcraft Part Number : LPS3010-822
* Inductance = 8.2uH
*======================================================================
* Model Parameters:
*   Valid Frequency Range = 0.1MHz-100MHz
*   Ambient Temperature = 25 degC
*   Inductor Frequency Model
*   Use model for Frequency Domain simulations
*======================================================================
.subckt LPS3010-822_freq port1 port2 PARAMS: Cpar=0.97pF Ind=8.2uH
X1 port1 port2 Model1A PARAMS:
+ R1=150
+ R2=0.5
+ C= {Cpar}
+ K1=0.00001
+ K2=2.36
+ K3= {Ind}
+ K4=0.2
+ K5=0.00000996
+ L=0
+ Is=0
+ a=0
+ L_Z0=0
+ L_EL=0
+ L_F0=0E6
+ PkZ=13325.3223
.ends LPS3010-822_freq

*======================================================================
* SPICE Model generated by Coilcraft
* Coilcraft Part Number : LPS3010-822
* Inductance = 8.2uH
*======================================================================
* Model Parameters:
*   Valid Frequency Range = 0.1MHz-100MHz
*   Ambient Temperature = 25 degC
*   Inductor Impedance Model
*   Use model for Time Domain simulations
*======================================================================
.subckt LPS3010-822_imp port1 port2 PARAMS: Cpar=0.82pF Ind=8.2uH
X1 port1 port2 Model1D PARAMS:
+ R1=150
+ R2=0.5
+ C= {Cpar}
+ K1=0.00001
+ K2=2.36
+ K3= {Ind}
+ K4=0.2
+ K5=0.00000996
+ L=0
+ Is=0
+ a=0
+ L_Z0=0
+ L_EL=0
+ L_F0=0E6
+ PkZ=13325.3223
.ends LPS3010-822_imp

*======================================================================
* SPICE Model generated by Coilcraft
* Coilcraft Part Number : LPS3010-103
* Inductance = 10uH
*======================================================================
* Model Parameters:
*   Valid Frequency Range = 0.1MHz-100MHz
*   Ambient Temperature = 25 degC
*   Inductor Frequency Model
*   Use model for Frequency Domain simulations
*======================================================================
.subckt LPS3010-103_freq port1 port2 PARAMS: Cpar=1.15pF Ind=10uH
X1 port1 port2 Model1A PARAMS:
+ R1=75
+ R2=0.54
+ C= {Cpar}
+ K1=0.0001
+ K2=2.42
+ K3= {Ind}
+ K4=0.26
+ K5=0.00000996
+ L=0
+ Is=0
+ a=0
+ L_Z0=0
+ L_EL=0
+ L_F0=0E6
+ PkZ=14681.1672
.ends LPS3010-103_freq

*======================================================================
* SPICE Model generated by Coilcraft
* Coilcraft Part Number : LPS3010-103
* Inductance = 10uH
*======================================================================
* Model Parameters:
*   Valid Frequency Range = 0.1MHz-100MHz
*   Ambient Temperature = 25 degC
*   Inductor Impedance Model
*   Use model for Time Domain simulations
*======================================================================
.subckt LPS3010-103_imp port1 port2 PARAMS: Cpar=0.97pF Ind=10uH
X1 port1 port2 Model1D PARAMS:
+ R1=75
+ R2=0.54
+ C= {Cpar}
+ K1=0.0001
+ K2=2.42
+ K3= {Ind}
+ K4=0.26
+ K5=0.00000996
+ L=0
+ Is=0
+ a=0
+ L_Z0=0
+ L_EL=0
+ L_F0=0E6
+ PkZ=14681.1672
.ends LPS3010-103_imp

*======================================================================
* SPICE Model generated by Coilcraft
* Coilcraft Part Number : LPS3010-123
* Inductance = 12uH
*======================================================================
* Model Parameters:
*   Valid Frequency Range = 0.1MHz-100MHz
*   Ambient Temperature = 25 degC
*   Inductor Frequency Model
*   Use model for Frequency Domain simulations
*======================================================================
.subckt LPS3010-123_freq port1 port2 PARAMS: Cpar=1.205pF Ind=12uH
X1 port1 port2 Model1A PARAMS:
+ R1=75
+ R2=0.7
+ C= {Cpar}
+ K1=0.00014
+ K2=3.1
+ K3= {Ind}
+ K4=0.27
+ K5=0.00000993
+ L=0
+ Is=0
+ a=0
+ L_Z0=0
+ L_EL=0
+ L_F0=0E6
+ PkZ=17575.0116
.ends LPS3010-123_freq

*======================================================================
* SPICE Model generated by Coilcraft
* Coilcraft Part Number : LPS3010-123
* Inductance = 12uH
*======================================================================
* Model Parameters:
*   Valid Frequency Range = 0.1MHz-100MHz
*   Ambient Temperature = 25 degC
*   Inductor Impedance Model
*   Use model for Time Domain simulations
*======================================================================
.subckt LPS3010-123_imp port1 port2 PARAMS: Cpar=1.04pF Ind=12uH
X1 port1 port2 Model1D PARAMS:
+ R1=75
+ R2=0.7
+ C= {Cpar}
+ K1=0.00014
+ K2=3.1
+ K3= {Ind}
+ K4=0.27
+ K5=0.00000993
+ L=0
+ Is=0
+ a=0
+ L_Z0=0
+ L_EL=0
+ L_F0=0E6
+ PkZ=17575.0116
.ends LPS3010-123_imp

*======================================================================
* SPICE Model generated by Coilcraft
* Coilcraft Part Number : LPS3010-153
* Inductance = 15uH
*======================================================================
* Model Parameters:
*   Valid Frequency Range = 0.1MHz-70MHz
*   Ambient Temperature = 25 degC
*   Inductor Frequency Model
*   Use model for Frequency Domain simulations
*======================================================================
.subckt LPS3010-153_freq port1 port2 PARAMS: Cpar=1.251pF Ind=15uH
X1 port1 port2 Model1A PARAMS:
+ R1=125
+ R2=0.95
+ C= {Cpar}
+ K1=0.000001
+ K2=5.05
+ K3= {Ind}
+ K4=0.245
+ K5=0.00000998
+ L=0
+ Is=0
+ a=0
+ L_Z0=0
+ L_EL=0
+ L_F0=0E6
+ PkZ=23053.7363
.ends LPS3010-153_freq

*======================================================================
* SPICE Model generated by Coilcraft
* Coilcraft Part Number : LPS3010-153
* Inductance = 15uH
*======================================================================
* Model Parameters:
*   Valid Frequency Range = 0.1MHz-70MHz
*   Ambient Temperature = 25 degC
*   Inductor Impedance Model
*   Use model for Time Domain simulations
*======================================================================
.subckt LPS3010-153_imp port1 port2 PARAMS: Cpar=1.13pF Ind=15uH
X1 port1 port2 Model1D PARAMS:
+ R1=125
+ R2=0.95
+ C= {Cpar}
+ K1=0.000001
+ K2=5.05
+ K3= {Ind}
+ K4=0.245
+ K5=0.00000998
+ L=0
+ Is=0
+ a=0
+ L_Z0=0
+ L_EL=0
+ L_F0=0E6
+ PkZ=23053.7363
.ends LPS3010-153_imp

*======================================================================
* SPICE Model generated by Coilcraft
* Coilcraft Part Number : LPS3010-183
* Inductance = 18uH
*======================================================================
* Model Parameters:
*   Valid Frequency Range = 0.1MHz-60MHz
*   Ambient Temperature = 25 degC
*   Inductor Frequency Model
*   Use model for Frequency Domain simulations
*======================================================================
.subckt LPS3010-183_freq port1 port2 PARAMS: Cpar=1.087pF Ind=18uH
X1 port1 port2 Model1A PARAMS:
+ R1=135
+ R2=1
+ C= {Cpar}
+ K1=0.00014
+ K2=5.51
+ K3= {Ind}
+ K4=0.16
+ K5=0.00000993
+ L=0
+ Is=0
+ a=0
+ L_Z0=0
+ L_EL=0
+ L_F0=0E6
+ PkZ=25974.4593
.ends LPS3010-183_freq

*======================================================================
* SPICE Model generated by Coilcraft
* Coilcraft Part Number : LPS3010-183
* Inductance = 18uH
*======================================================================
* Model Parameters:
*   Valid Frequency Range = 0.1MHz-60MHz
*   Ambient Temperature = 25 degC
*   Inductor Impedance Model
*   Use model for Time Domain simulations
*======================================================================
.subckt LPS3010-183_imp port1 port2 PARAMS: Cpar=1.03pF Ind=18uH
X1 port1 port2 Model1D PARAMS:
+ R1=135
+ R2=1
+ C= {Cpar}
+ K1=0.00014
+ K2=5.51
+ K3= {Ind}
+ K4=0.16
+ K5=0.00000993
+ L=0
+ Is=0
+ a=0
+ L_Z0=0
+ L_EL=0
+ L_F0=0E6
+ PkZ=25974.4593
.ends LPS3010-183_imp

*======================================================================
* SPICE Model generated by Coilcraft
* Coilcraft Part Number : LPS3010-223
* Inductance = 22uH
*======================================================================
* Model Parameters:
*   Valid Frequency Range = 0.1MHz-50MHz
*   Ambient Temperature = 25 degC
*   Inductor Frequency Model
*   Use model for Frequency Domain simulations
*======================================================================
.subckt LPS3010-223_freq port1 port2 PARAMS: Cpar=1.002pF Ind=22uH
X1 port1 port2 Model1A PARAMS:
+ R1=220
+ R2=1.2
+ C= {Cpar}
+ K1=0.000001
+ K2=6.68
+ K3= {Ind}
+ K4=0.194
+ K5=0.00000995
+ L=0
+ Is=0
+ a=0
+ L_Z0=0
+ L_EL=0
+ L_F0=0E6
+ PkZ=27842.5029
.ends LPS3010-223_freq

*======================================================================
* SPICE Model generated by Coilcraft
* Coilcraft Part Number : LPS3010-223
* Inductance = 22uH
*======================================================================
* Model Parameters:
*   Valid Frequency Range = 0.1MHz-50MHz
*   Ambient Temperature = 25 degC
*   Inductor Impedance Model
*   Use model for Time Domain simulations
*======================================================================
.subckt LPS3010-223_imp port1 port2 PARAMS: Cpar=0.95pF Ind=22uH
X1 port1 port2 Model1D PARAMS:
+ R1=220
+ R2=1.2
+ C= {Cpar}
+ K1=0.000001
+ K2=6.68
+ K3= {Ind}
+ K4=0.194
+ K5=0.00000995
+ L=0
+ Is=0
+ a=0
+ L_Z0=0
+ L_EL=0
+ L_F0=0E6
+ PkZ=27842.5029
.ends LPS3010-223_imp

*======================================================================
* SPICE Model generated by Coilcraft
* Coilcraft Part Number : LPS3010-333
* Inductance = 33uH
*======================================================================
* Model Parameters:
*   Valid Frequency Range = 0.1MHz-30MHz
*   Ambient Temperature = 25 degC
*   Inductor Frequency Model
*   Use model for Frequency Domain simulations
*======================================================================
.subckt LPS3010-333_freq port1 port2 PARAMS: Cpar=1.17pF Ind=33uH
X1 port1 port2 Model1A PARAMS:
+ R1=275
+ R2=2
+ C= {Cpar}
+ K1=0.00001
+ K2=11
+ K3= {Ind}
+ K4=0.261
+ K5=0.00000996
+ L=0
+ Is=0
+ a=0
+ L_Z0=0
+ L_EL=0
+ L_F0=0E6
+ PkZ=35794.5271
.ends LPS3010-333_freq

*======================================================================
* SPICE Model generated by Coilcraft
* Coilcraft Part Number : LPS3010-333
* Inductance = 33uH
*======================================================================
* Model Parameters:
*   Valid Frequency Range = 0.1MHz-30MHz
*   Ambient Temperature = 25 degC
*   Inductor Impedance Model
*   Use model for Time Domain simulations
*======================================================================
.subckt LPS3010-333_imp port1 port2 PARAMS: Cpar=1.12pF Ind=33uH
X1 port1 port2 Model1D PARAMS:
+ R1=275
+ R2=2
+ C= {Cpar}
+ K1=0.00001
+ K2=11
+ K3= {Ind}
+ K4=0.261
+ K5=0.00000996
+ L=0
+ Is=0
+ a=0
+ L_Z0=0
+ L_EL=0
+ L_F0=0E6
+ PkZ=35794.5271
.ends LPS3010-333_imp

*======================================================================
* SPICE Model generated by Coilcraft
* Coilcraft Part Number : LPS3010-473
* Inductance = 47uH
*======================================================================
* Model Parameters:
*   Valid Frequency Range = 0.1MHz-30MHz
*   Ambient Temperature = 25 degC
*   Inductor Frequency Model
*   Use model for Frequency Domain simulations
*======================================================================
.subckt LPS3010-473_freq port1 port2 PARAMS: Cpar=1.64pF Ind=47uH
X1 port1 port2 Model1A PARAMS:
+ R1=300
+ R2=3.2
+ C= {Cpar}
+ K1=0.000001
+ K2=19
+ K3= {Ind}
+ K4=0.274
+ K5=0.00001
+ L=0
+ Is=0
+ a=0
+ L_Z0=0
+ L_EL=0
+ L_F0=0E6
+ PkZ=43413.486
.ends LPS3010-473_freq

*======================================================================
* SPICE Model generated by Coilcraft
* Coilcraft Part Number : LPS3010-473
* Inductance = 47uH
*======================================================================
* Model Parameters:
*   Valid Frequency Range = 0.1MHz-30MHz
*   Ambient Temperature = 25 degC
*   Inductor Impedance Model
*   Use model for Time Domain simulations
*======================================================================
.subckt LPS3010-473_imp port1 port2 PARAMS: Cpar=1.59pF Ind=47uH
X1 port1 port2 Model1D PARAMS:
+ R1=300
+ R2=3.2
+ C= {Cpar}
+ K1=0.000001
+ K2=19
+ K3= {Ind}
+ K4=0.274
+ K5=0.00001
+ L=0
+ Is=0
+ a=0
+ L_Z0=0
+ L_EL=0
+ L_F0=0E6
+ PkZ=43413.486
.ends LPS3010-473_imp

*======================================================================
* SPICE Model generated by Coilcraft
* Coilcraft Part Number : LPS3010-683
* Inductance = 68uH
*======================================================================
* Model Parameters:
*   Valid Frequency Range = 0.1MHz-20MHz
*   Ambient Temperature = 25 degC
*   Inductor Frequency Model
*   Use model for Frequency Domain simulations
*======================================================================
.subckt LPS3010-683_freq port1 port2 PARAMS: Cpar=1.64pF Ind=68uH
X1 port1 port2 Model1A PARAMS:
+ R1=300
+ R2=3.5
+ C= {Cpar}
+ K1=0.000001
+ K2=22.5
+ K3= {Ind}
+ K4=0.41
+ K5=0.00001
+ L=0
+ Is=0
+ a=0
+ L_Z0=0
+ L_EL=0
+ L_F0=0E6
+ PkZ=53170.0926
.ends LPS3010-683_freq

*======================================================================
* SPICE Model generated by Coilcraft
* Coilcraft Part Number : LPS3010-683
* Inductance = 68uH
*======================================================================
* Model Parameters:
*   Valid Frequency Range = 0.1MHz-20MHz
*   Ambient Temperature = 25 degC
*   Inductor Impedance Model
*   Use model for Time Domain simulations
*======================================================================
.subckt LPS3010-683_imp port1 port2 PARAMS: Cpar=1.59pF Ind=68uH
X1 port1 port2 Model1D PARAMS:
+ R1=300
+ R2=3.5
+ C= {Cpar}
+ K1=0.000001
+ K2=22.5
+ K3= {Ind}
+ K4=0.41
+ K5=0.00001
+ L=0
+ Is=0
+ a=0
+ L_Z0=0
+ L_EL=0
+ L_F0=0E6
+ PkZ=53170.0926
.ends LPS3010-683_imp

*======================================================================
* SPICE Model generated by Coilcraft
* Coilcraft Part Number : LPS3010-104
* Inductance = 100uH
*======================================================================
* Model Parameters:
*   Valid Frequency Range = 0.1MHz-20MHz
*   Ambient Temperature = 25 degC
*   Inductor Frequency Model
*   Use model for Frequency Domain simulations
*======================================================================
.subckt LPS3010-104_freq port1 port2 PARAMS: Cpar=1.154pF Ind=100uH
X1 port1 port2 Model1A PARAMS:
+ R1=360
+ R2=5.25
+ C= {Cpar}
+ K1=0.0002
+ K2=35
+ K3= {Ind}
+ K4=0.333
+ K5=0.00001
+ L=0
+ Is=0
+ a=0
+ L_Z0=0
+ L_EL=0
+ L_F0=0E6
+ PkZ=86060.8348
.ends LPS3010-104_freq

*======================================================================
* SPICE Model generated by Coilcraft
* Coilcraft Part Number : LPS3010-104
* Inductance = 100uH
*======================================================================
* Model Parameters:
*   Valid Frequency Range = 0.1MHz-20MHz
*   Ambient Temperature = 25 degC
*   Inductor Impedance Model
*   Use model for Time Domain simulations
*======================================================================
.subckt LPS3010-104_imp port1 port2 PARAMS: Cpar=1.13pF Ind=100uH
X1 port1 port2 Model1D PARAMS:
+ R1=360
+ R2=5.25
+ C= {Cpar}
+ K1=0.0002
+ K2=35
+ K3= {Ind}
+ K4=0.333
+ K5=0.00001
+ L=0
+ Is=0
+ a=0
+ L_Z0=0
+ L_EL=0
+ L_F0=0E6
+ PkZ=86060.8348
.ends LPS3010-104_imp

*======================================================================