*======================================================================
* SPICE Model generated by Coilcraft
* Coilcraft Part Number : LPS3008-561
* Inductance = 0.56uH
*======================================================================
* Model Parameters:
*   Valid Frequency Range = 0.1MHz-200MHz
*   Ambient Temperature = 25 degC
*   Inductor Frequency Model
*   Use model for Frequency Domain simulations
*======================================================================
.subckt LPS3008-561_freq port1 port2 PARAMS: Cpar=1.008pF Ind=0.56uH
X1 port1 port2 Model1A PARAMS:
+ R1=300
+ R2=0.072
+ C= {Cpar}
+ K1=0.00001
+ K2=0.137
+ K3= {Ind}
+ K4=0.016
+ K5=0.0000099
+ L=0
+ Is=0
+ a=0
+ L_Z0=0
+ L_EL=0
+ L_F0=0E6
+ PkZ=927.755127
.ends LPS3008-561_freq

*======================================================================
* SPICE Model generated by Coilcraft
* Coilcraft Part Number : LPS3008-561
* Inductance = 0.56uH
*======================================================================
* Model Parameters:
*   Valid Frequency Range = 0.1MHz-200MHz
*   Ambient Temperature = 25 degC
*   Inductor Impedance Model
*   Use model for Time Domain simulations
*======================================================================
.subckt LPS3008-561_imp port1 port2 PARAMS: Cpar=0.79pF Ind=0.56uH
X1 port1 port2 Model1D PARAMS:
+ R1=300
+ R2=0.072
+ C= {Cpar}
+ K1=0.00001
+ K2=0.137
+ K3= {Ind}
+ K4=0.016
+ K5=0.0000099
+ L=0
+ Is=0
+ a=0
+ L_Z0=0
+ L_EL=0
+ L_F0=0E6
+ PkZ=927.755127
.ends LPS3008-561_imp

*======================================================================
* SPICE Model generated by Coilcraft
* Coilcraft Part Number : LPS3008-801
* Inductance = 0.8uH
*======================================================================
* Model Parameters:
*   Valid Frequency Range = 0.1MHz-200MHz
*   Ambient Temperature = 25 degC
*   Inductor Frequency Model
*   Use model for Frequency Domain simulations
*======================================================================
.subckt LPS3008-801_freq port1 port2 PARAMS: Cpar=0.742pF Ind=0.8uH
X1 port1 port2 Model1A PARAMS:
+ R1=300
+ R2=0.092
+ C= {Cpar}
+ K1=0.00006
+ K2=0.22
+ K3= {Ind}
+ K4=0.018
+ K5=0.0000099
+ L=0
+ Is=0
+ a=0
+ L_Z0=0
+ L_EL=0
+ L_F0=0E6
+ PkZ=1623.5844
.ends LPS3008-801_freq

*======================================================================
* SPICE Model generated by Coilcraft
* Coilcraft Part Number : LPS3008-801
* Inductance = 0.8uH
*======================================================================
* Model Parameters:
*   Valid Frequency Range = 0.1MHz-200MHz
*   Ambient Temperature = 25 degC
*   Inductor Impedance Model
*   Use model for Time Domain simulations
*======================================================================
.subckt LPS3008-801_imp port1 port2 PARAMS: Cpar=0.61pF Ind=0.8uH
X1 port1 port2 Model1D PARAMS:
+ R1=300
+ R2=0.092
+ C= {Cpar}
+ K1=0.00006
+ K2=0.22
+ K3= {Ind}
+ K4=0.018
+ K5=0.0000099
+ L=0
+ Is=0
+ a=0
+ L_Z0=0
+ L_EL=0
+ L_F0=0E6
+ PkZ=1623.5844
.ends LPS3008-801_imp

*======================================================================
* SPICE Model generated by Coilcraft
* Coilcraft Part Number : LPS3008-102
* Inductance = 1uH
*======================================================================
* Model Parameters:
*   Valid Frequency Range = 0.1MHz-200MHz
*   Ambient Temperature = 25 degC
*   Inductor Frequency Model
*   Use model for Frequency Domain simulations
*======================================================================
.subckt LPS3008-102_freq port1 port2 PARAMS: Cpar=0.872pF Ind=1uH
X1 port1 port2 Model1A PARAMS:
+ R1=170
+ R2=0.125
+ C= {Cpar}
+ K1=0.00003
+ K2=0.246
+ K3= {Ind}
+ K4=0.029
+ K5=0.0000099
+ L=0
+ Is=0
+ a=0
+ L_Z0=0
+ L_EL=0
+ L_F0=0E6
+ PkZ=2091.87813
.ends LPS3008-102_freq

*======================================================================
* SPICE Model generated by Coilcraft
* Coilcraft Part Number : LPS3008-102
* Inductance = 1uH
*======================================================================
* Model Parameters:
*   Valid Frequency Range = 0.1MHz-200MHz
*   Ambient Temperature = 25 degC
*   Inductor Impedance Model
*   Use model for Time Domain simulations
*======================================================================
.subckt LPS3008-102_imp port1 port2 PARAMS: Cpar=0.68pF Ind=1uH
X1 port1 port2 Model1D PARAMS:
+ R1=170
+ R2=0.125
+ C= {Cpar}
+ K1=0.00003
+ K2=0.246
+ K3= {Ind}
+ K4=0.029
+ K5=0.0000099
+ L=0
+ Is=0
+ a=0
+ L_Z0=0
+ L_EL=0
+ L_F0=0E6
+ PkZ=2091.87813
.ends LPS3008-102_imp

*======================================================================
* SPICE Model generated by Coilcraft
* Coilcraft Part Number : LPS3008-152
* Inductance = 1.5uH
*======================================================================
* Model Parameters:
*   Valid Frequency Range = 0.1MHz-200MHz
*   Ambient Temperature = 25 degC
*   Inductor Frequency Model
*   Use model for Frequency Domain simulations
*======================================================================
.subckt LPS3008-152_freq port1 port2 PARAMS: Cpar=0.809pF Ind=1.5uH
X1 port1 port2 Model1A PARAMS:
+ R1=115
+ R2=0.134
+ C= {Cpar}
+ K1=0.000195
+ K2=0.335
+ K3= {Ind}
+ K4=0.058
+ K5=0.0000097
+ L=0
+ Is=0
+ a=0
+ L_Z0=0
+ L_EL=0
+ L_F0=0E6
+ PkZ=3160.45108
.ends LPS3008-152_freq

*======================================================================
* SPICE Model generated by Coilcraft
* Coilcraft Part Number : LPS3008-152
* Inductance = 1.5uH
*======================================================================
* Model Parameters:
*   Valid Frequency Range = 0.1MHz-200MHz
*   Ambient Temperature = 25 degC
*   Inductor Impedance Model
*   Use model for Time Domain simulations
*======================================================================
.subckt LPS3008-152_imp port1 port2 PARAMS: Cpar=0.58pF Ind=1.5uH
X1 port1 port2 Model1D PARAMS:
+ R1=115
+ R2=0.134
+ C= {Cpar}
+ K1=0.000195
+ K2=0.335
+ K3= {Ind}
+ K4=0.058
+ K5=0.0000097
+ L=0
+ Is=0
+ a=0
+ L_Z0=0
+ L_EL=0
+ L_F0=0E6
+ PkZ=3160.45108
.ends LPS3008-152_imp

*======================================================================
* SPICE Model generated by Coilcraft
* Coilcraft Part Number : LPS3008-222
* Inductance = 2.2uH
*======================================================================
* Model Parameters:
*   Valid Frequency Range = 0.1MHz-200MHz
*   Ambient Temperature = 25 degC
*   Inductor Frequency Model
*   Use model for Frequency Domain simulations
*======================================================================
.subckt LPS3008-222_freq port1 port2 PARAMS: Cpar=0.803pF Ind=2.2uH
X1 port1 port2 Model1A PARAMS:
+ R1=130
+ R2=0.175
+ C= {Cpar}
+ K1=0.000065
+ K2=0.47
+ K3= {Ind}
+ K4=0.067
+ K5=0.0000099
+ L=0
+ Is=0
+ a=0
+ L_Z0=0
+ L_EL=0
+ L_F0=0E6
+ PkZ=4106.82259
.ends LPS3008-222_freq

*======================================================================
* SPICE Model generated by Coilcraft
* Coilcraft Part Number : LPS3008-222
* Inductance = 2.2uH
*======================================================================
* Model Parameters:
*   Valid Frequency Range = 0.1MHz-200MHz
*   Ambient Temperature = 25 degC
*   Inductor Impedance Model
*   Use model for Time Domain simulations
*======================================================================
.subckt LPS3008-222_imp port1 port2 PARAMS: Cpar=0.63pF Ind=2.2uH
X1 port1 port2 Model1D PARAMS:
+ R1=130
+ R2=0.175
+ C= {Cpar}
+ K1=0.000065
+ K2=0.47
+ K3= {Ind}
+ K4=0.067
+ K5=0.0000099
+ L=0
+ Is=0
+ a=0
+ L_Z0=0
+ L_EL=0
+ L_F0=0E6
+ PkZ=4106.82259
.ends LPS3008-222_imp

*======================================================================
* SPICE Model generated by Coilcraft
* Coilcraft Part Number : LPS3008-332
* Inductance = 3.3uH
*======================================================================
* Model Parameters:
*   Valid Frequency Range = 0.1MHz-200MHz
*   Ambient Temperature = 25 degC
*   Inductor Frequency Model
*   Use model for Frequency Domain simulations
*======================================================================
.subckt LPS3008-332_freq port1 port2 PARAMS: Cpar=0.849pF Ind=3.3uH
X1 port1 port2 Model1A PARAMS:
+ R1=125
+ R2=0.285
+ C= {Cpar}
+ K1=0.00001
+ K2=0.772
+ K3= {Ind}
+ K4=0.074
+ K5=0.0000099
+ L=0
+ Is=0
+ a=0
+ L_Z0=0
+ L_EL=0
+ L_F0=0E6
+ PkZ=6049.67589
.ends LPS3008-332_freq

*======================================================================
* SPICE Model generated by Coilcraft
* Coilcraft Part Number : LPS3008-332
* Inductance = 3.3uH
*======================================================================
* Model Parameters:
*   Valid Frequency Range = 0.1MHz-200MHz
*   Ambient Temperature = 25 degC
*   Inductor Impedance Model
*   Use model for Time Domain simulations
*======================================================================
.subckt LPS3008-332_imp port1 port2 PARAMS: Cpar=0.72pF Ind=3.3uH
X1 port1 port2 Model1D PARAMS:
+ R1=125
+ R2=0.285
+ C= {Cpar}
+ K1=0.00001
+ K2=0.772
+ K3= {Ind}
+ K4=0.074
+ K5=0.0000099
+ L=0
+ Is=0
+ a=0
+ L_Z0=0
+ L_EL=0
+ L_F0=0E6
+ PkZ=6049.67589
.ends LPS3008-332_imp

*======================================================================
* SPICE Model generated by Coilcraft
* Coilcraft Part Number : LPS3008-472
* Inductance = 4.7uH
*======================================================================
* Model Parameters:
*   Valid Frequency Range = 0.1MHz-200MHz
*   Ambient Temperature = 25 degC
*   Inductor Frequency Model
*   Use model for Frequency Domain simulations
*======================================================================
.subckt LPS3008-472_freq port1 port2 PARAMS: Cpar=0.808pF Ind=4.7uH
X1 port1 port2 Model1A PARAMS:
+ R1=25
+ R2=0.35
+ C= {Cpar}
+ K1=0.00014
+ K2=0.98
+ K3= {Ind}
+ K4=0.094
+ K5=0.0000098
+ L=0
+ Is=0
+ a=0
+ L_Z0=0
+ L_EL=0
+ L_F0=0E6
+ PkZ=8760.20818
.ends LPS3008-472_freq

*======================================================================
* SPICE Model generated by Coilcraft
* Coilcraft Part Number : LPS3008-472
* Inductance = 4.7uH
*======================================================================
* Model Parameters:
*   Valid Frequency Range = 0.1MHz-200MHz
*   Ambient Temperature = 25 degC
*   Inductor Impedance Model
*   Use model for Time Domain simulations
*======================================================================
.subckt LPS3008-472_imp port1 port2 PARAMS: Cpar=0.70pF Ind=4.7uH
X1 port1 port2 Model1D PARAMS:
+ R1=25
+ R2=0.35
+ C= {Cpar}
+ K1=0.00014
+ K2=0.98
+ K3= {Ind}
+ K4=0.094
+ K5=0.0000098
+ L=0
+ Is=0
+ a=0
+ L_Z0=0
+ L_EL=0
+ L_F0=0E6
+ PkZ=8760.20818
.ends LPS3008-472_imp

*======================================================================
* SPICE Model generated by Coilcraft
* Coilcraft Part Number : LPS3008-562
* Inductance = 5.6uH
*======================================================================
* Model Parameters:
*   Valid Frequency Range = 0.1MHz-100MHz
*   Ambient Temperature = 25 degC
*   Inductor Frequency Model
*   Use model for Frequency Domain simulations
*======================================================================
.subckt LPS3008-562_freq port1 port2 PARAMS: Cpar=0.987pF Ind=5.6uH
X1 port1 port2 Model1A PARAMS:
+ R1=80
+ R2=0.45
+ C= {Cpar}
+ K1=0.0004
+ K2=1.52
+ K3= {Ind}
+ K4=0.134
+ K5=0.00000975
+ L=0
+ Is=0
+ a=0
+ L_Z0=0
+ L_EL=0
+ L_F0=0E6
+ PkZ=10631.7937
.ends LPS3008-562_freq

*======================================================================
* SPICE Model generated by Coilcraft
* Coilcraft Part Number : LPS3008-562
* Inductance = 5.6uH
*======================================================================
* Model Parameters:
*   Valid Frequency Range = 0.1MHz-100MHz
*   Ambient Temperature = 25 degC
*   Inductor Impedance Model
*   Use model for Time Domain simulations
*======================================================================
.subckt LPS3008-562_imp port1 port2 PARAMS: Cpar=0.83pF Ind=5.6uH
X1 port1 port2 Model1D PARAMS:
+ R1=80
+ R2=0.45
+ C= {Cpar}
+ K1=0.0004
+ K2=1.52
+ K3= {Ind}
+ K4=0.134
+ K5=0.00000975
+ L=0
+ Is=0
+ a=0
+ L_Z0=0
+ L_EL=0
+ L_F0=0E6
+ PkZ=10631.7937
.ends LPS3008-562_imp

*======================================================================
* SPICE Model generated by Coilcraft
* Coilcraft Part Number : LPS3008-682
* Inductance = 6.8uH
*======================================================================
* Model Parameters:
*   Valid Frequency Range = 0.1MHz-100MHz
*   Ambient Temperature = 25 degC
*   Inductor Frequency Model
*   Use model for Frequency Domain simulations
*======================================================================
.subckt LPS3008-682_freq port1 port2 PARAMS: Cpar=0.966pF Ind=6.8uH
X1 port1 port2 Model1A PARAMS:
+ R1=100
+ R2=0.5
+ C= {Cpar}
+ K1=0.00018
+ K2=1.85
+ K3= {Ind}
+ K4=0.148
+ K5=0.0000099
+ L=0
+ Is=0
+ a=0
+ L_Z0=0
+ L_EL=0
+ L_F0=0E6
+ PkZ=12077.1648
.ends LPS3008-682_freq

*======================================================================
* SPICE Model generated by Coilcraft
* Coilcraft Part Number : LPS3008-682
* Inductance = 6.8uH
*======================================================================
* Model Parameters:
*   Valid Frequency Range = 0.1MHz-100MHz
*   Ambient Temperature = 25 degC
*   Inductor Impedance Model
*   Use model for Time Domain simulations
*======================================================================
.subckt LPS3008-682_imp port1 port2 PARAMS: Cpar=0.83pF Ind=6.8uH
X1 port1 port2 Model1D PARAMS:
+ R1=100
+ R2=0.5
+ C= {Cpar}
+ K1=0.00018
+ K2=1.85
+ K3= {Ind}
+ K4=0.148
+ K5=0.0000099
+ L=0
+ Is=0
+ a=0
+ L_Z0=0
+ L_EL=0
+ L_F0=0E6
+ PkZ=12077.1648
.ends LPS3008-682_imp

*======================================================================
* SPICE Model generated by Coilcraft
* Coilcraft Part Number : LPS3008-822
* Inductance = 8.2uH
*======================================================================
* Model Parameters:
*   Valid Frequency Range = 0.1MHz-100MHz
*   Ambient Temperature = 25 degC
*   Inductor Frequency Model
*   Use model for Frequency Domain simulations
*======================================================================
.subckt LPS3008-822_freq port1 port2 PARAMS: Cpar=0.944pF Ind=8.2uH
X1 port1 port2 Model1A PARAMS:
+ R1=30
+ R2=0.6
+ C= {Cpar}
+ K1=0.00009
+ K2=1.97
+ K3= {Ind}
+ K4=0.163
+ K5=0.0000099
+ L=0
+ Is=0
+ a=0
+ L_Z0=0
+ L_EL=0
+ L_F0=0E6
+ PkZ=14506.052
.ends LPS3008-822_freq

*======================================================================
* SPICE Model generated by Coilcraft
* Coilcraft Part Number : LPS3008-822
* Inductance = 8.2uH
*======================================================================
* Model Parameters:
*   Valid Frequency Range = 0.1MHz-100MHz
*   Ambient Temperature = 25 degC
*   Inductor Impedance Model
*   Use model for Time Domain simulations
*======================================================================
.subckt LPS3008-822_imp port1 port2 PARAMS: Cpar=0.83pF Ind=8.2uH
X1 port1 port2 Model1D PARAMS:
+ R1=30
+ R2=0.6
+ C= {Cpar}
+ K1=0.00009
+ K2=1.97
+ K3= {Ind}
+ K4=0.163
+ K5=0.0000099
+ L=0
+ Is=0
+ a=0
+ L_Z0=0
+ L_EL=0
+ L_F0=0E6
+ PkZ=14506.052
.ends LPS3008-822_imp

*======================================================================
* SPICE Model generated by Coilcraft
* Coilcraft Part Number : LPS3008-103
* Inductance = 10uH
*======================================================================
* Model Parameters:
*   Valid Frequency Range = 0.1MHz-100MHz
*   Ambient Temperature = 25 degC
*   Inductor Frequency Model
*   Use model for Frequency Domain simulations
*======================================================================
.subckt LPS3008-103_freq port1 port2 PARAMS: Cpar=0.952pF Ind=10uH
X1 port1 port2 Model1A PARAMS:
+ R1=50
+ R2=0.65
+ C= {Cpar}
+ K1=0.00008
+ K2=2.42
+ K3= {Ind}
+ K4=0.218
+ K5=0.00000995
+ L=0
+ Is=0
+ a=0
+ L_Z0=0
+ L_EL=0
+ L_F0=0E6
+ PkZ=16381.2626
.ends LPS3008-103_freq

*======================================================================
* SPICE Model generated by Coilcraft
* Coilcraft Part Number : LPS3008-103
* Inductance = 10uH
*======================================================================
* Model Parameters:
*   Valid Frequency Range = 0.1MHz-100MHz
*   Ambient Temperature = 25 degC
*   Inductor Impedance Model
*   Use model for Time Domain simulations
*======================================================================
.subckt LPS3008-103_imp port1 port2 PARAMS: Cpar=0.82pF Ind=10uH
X1 port1 port2 Model1D PARAMS:
+ R1=50
+ R2=0.65
+ C= {Cpar}
+ K1=0.00008
+ K2=2.42
+ K3= {Ind}
+ K4=0.218
+ K5=0.00000995
+ L=0
+ Is=0
+ a=0
+ L_Z0=0
+ L_EL=0
+ L_F0=0E6
+ PkZ=16381.2626
.ends LPS3008-103_imp

*======================================================================
* SPICE Model generated by Coilcraft
* Coilcraft Part Number : LPS3008-123
* Inductance = 12uH
*======================================================================
* Model Parameters:
*   Valid Frequency Range = 0.1MHz-100MHz
*   Ambient Temperature = 25 degC
*   Inductor Frequency Model
*   Use model for Frequency Domain simulations
*======================================================================
.subckt LPS3008-123_freq port1 port2 PARAMS: Cpar=0.943pF Ind=12uH
X1 port1 port2 Model1A PARAMS:
+ R1=45
+ R2=0.79
+ C= {Cpar}
+ K1=0.00001
+ K2=2.73
+ K3= {Ind}
+ K4=0.289
+ K5=0.00000998
+ L=0
+ Is=0
+ a=0
+ L_Z0=0
+ L_EL=0
+ L_F0=0E6
+ PkZ=18076.7734
.ends LPS3008-123_freq

*======================================================================
* SPICE Model generated by Coilcraft
* Coilcraft Part Number : LPS3008-123
* Inductance = 12uH
*======================================================================
* Model Parameters:
*   Valid Frequency Range = 0.1MHz-100MHz
*   Ambient Temperature = 25 degC
*   Inductor Impedance Model
*   Use model for Time Domain simulations
*======================================================================
.subckt LPS3008-123_imp port1 port2 PARAMS: Cpar=0.80pF Ind=12uH
X1 port1 port2 Model1D PARAMS:
+ R1=45
+ R2=0.79
+ C= {Cpar}
+ K1=0.00001
+ K2=2.73
+ K3= {Ind}
+ K4=0.289
+ K5=0.00000998
+ L=0
+ Is=0
+ a=0
+ L_Z0=0
+ L_EL=0
+ L_F0=0E6
+ PkZ=18076.7734
.ends LPS3008-123_imp

*======================================================================
* SPICE Model generated by Coilcraft
* Coilcraft Part Number : LPS3008-183
* Inductance = 18uH
*======================================================================
* Model Parameters:
*   Valid Frequency Range = 0.1MHz-70MHz
*   Ambient Temperature = 25 degC
*   Inductor Frequency Model
*   Use model for Frequency Domain simulations
*======================================================================
.subckt LPS3008-183_freq port1 port2 PARAMS: Cpar=1.066pF Ind=18uH
X1 port1 port2 Model1A PARAMS:
+ R1=82
+ R2=1.25
+ C= {Cpar}
+ K1=0.000001
+ K2=4.4
+ K3= {Ind}
+ K4=0.207
+ K5=0.00000995
+ L=0
+ Is=0
+ a=0
+ L_Z0=0
+ L_EL=0
+ L_F0=0E6
+ PkZ=23665.9552
.ends LPS3008-183_freq

*======================================================================
* SPICE Model generated by Coilcraft
* Coilcraft Part Number : LPS3008-183
* Inductance = 18uH
*======================================================================
* Model Parameters:
*   Valid Frequency Range = 0.1MHz-70MHz
*   Ambient Temperature = 25 degC
*   Inductor Impedance Model
*   Use model for Time Domain simulations
*======================================================================
.subckt LPS3008-183_imp port1 port2 PARAMS: Cpar=0.99pF Ind=18uH
X1 port1 port2 Model1D PARAMS:
+ R1=82
+ R2=1.25
+ C= {Cpar}
+ K1=0.000001
+ K2=4.4
+ K3= {Ind}
+ K4=0.207
+ K5=0.00000995
+ L=0
+ Is=0
+ a=0
+ L_Z0=0
+ L_EL=0
+ L_F0=0E6
+ PkZ=23665.9552
.ends LPS3008-183_imp

*======================================================================
* SPICE Model generated by Coilcraft
* Coilcraft Part Number : LPS3008-223
* Inductance = 22uH
*======================================================================
* Model Parameters:
*   Valid Frequency Range = 0.1MHz-50MHz
*   Ambient Temperature = 25 degC
*   Inductor Frequency Model
*   Use model for Frequency Domain simulations
*======================================================================
.subckt LPS3008-223_freq port1 port2 PARAMS: Cpar=1.08pF Ind=22uH
X1 port1 port2 Model1A PARAMS:
+ R1=460
+ R2=1.5
+ C= {Cpar}
+ K1=0.0003
+ K2=4.62
+ K3= {Ind}
+ K4=0.178
+ K5=0.00000975
+ L=0
+ Is=0
+ a=0
+ L_Z0=0
+ L_EL=0
+ L_F0=0E6
+ PkZ=16394.4799
.ends LPS3008-223_freq

*======================================================================
* SPICE Model generated by Coilcraft
* Coilcraft Part Number : LPS3008-223
* Inductance = 22uH
*======================================================================
* Model Parameters:
*   Valid Frequency Range = 0.1MHz-50MHz
*   Ambient Temperature = 25 degC
*   Inductor Impedance Model
*   Use model for Time Domain simulations
*======================================================================
.subckt LPS3008-223_imp port1 port2 PARAMS: Cpar=1.03pF Ind=22uH
X1 port1 port2 Model1D PARAMS:
+ R1=460
+ R2=1.5
+ C= {Cpar}
+ K1=0.0003
+ K2=4.62
+ K3= {Ind}
+ K4=0.178
+ K5=0.00000975
+ L=0
+ Is=0
+ a=0
+ L_Z0=0
+ L_EL=0
+ L_F0=0E6
+ PkZ=16394.4799
.ends LPS3008-223_imp

*======================================================================
* SPICE Model generated by Coilcraft
* Coilcraft Part Number : LPS3008-333
* Inductance = 33uH
*======================================================================
* Model Parameters:
*   Valid Frequency Range = 0.1MHz-30MHz
*   Ambient Temperature = 25 degC
*   Inductor Frequency Model
*   Use model for Frequency Domain simulations
*======================================================================
.subckt LPS3008-333_freq port1 port2 PARAMS: Cpar=1.36pF Ind=33uH
X1 port1 port2 Model1A PARAMS:
+ R1=195
+ R2=2.3
+ C= {Cpar}
+ K1=0.00027
+ K2=8.98
+ K3= {Ind}
+ K4=0.36
+ K5=0.0000099
+ L=0
+ Is=0
+ a=0
+ L_Z0=0
+ L_EL=0
+ L_F0=0E6
+ PkZ=32165.509
.ends LPS3008-333_freq

*======================================================================
* SPICE Model generated by Coilcraft
* Coilcraft Part Number : LPS3008-333
* Inductance = 33uH
*======================================================================
* Model Parameters:
*   Valid Frequency Range = 0.1MHz-30MHz
*   Ambient Temperature = 25 degC
*   Inductor Impedance Model
*   Use model for Time Domain simulations
*======================================================================
.subckt LPS3008-333_imp port1 port2 PARAMS: Cpar=1.28pF Ind=33uH
X1 port1 port2 Model1D PARAMS:
+ R1=195
+ R2=2.3
+ C= {Cpar}
+ K1=0.00027
+ K2=8.98
+ K3= {Ind}
+ K4=0.36
+ K5=0.0000099
+ L=0
+ Is=0
+ a=0
+ L_Z0=0
+ L_EL=0
+ L_F0=0E6
+ PkZ=32165.509
.ends LPS3008-333_imp

*======================================================================
* SPICE Model generated by Coilcraft
* Coilcraft Part Number : LPS3008-473
* Inductance = 47uH
*======================================================================
* Model Parameters:
*   Valid Frequency Range = 0.1MHz-30MHz
*   Ambient Temperature = 25 degC
*   Inductor Frequency Model
*   Use model for Frequency Domain simulations
*======================================================================
.subckt LPS3008-473_freq port1 port2 PARAMS: Cpar=1.195pF Ind=47uH
X1 port1 port2 Model1A PARAMS:
+ R1=740
+ R2=3
+ C= {Cpar}
+ K1=0.00002
+ K2=11.9
+ K3= {Ind}
+ K4=0.42
+ K5=0.00000995
+ L=0
+ Is=0
+ a=0
+ L_Z0=0
+ L_EL=0
+ L_F0=0E6
+ PkZ=26621.9527
.ends LPS3008-473_freq

*======================================================================
* SPICE Model generated by Coilcraft
* Coilcraft Part Number : LPS3008-473
* Inductance = 47uH
*======================================================================
* Model Parameters:
*   Valid Frequency Range = 0.1MHz-30MHz
*   Ambient Temperature = 25 degC
*   Inductor Impedance Model
*   Use model for Time Domain simulations
*======================================================================
.subckt LPS3008-473_imp port1 port2 PARAMS: Cpar=1.14pF Ind=47uH
X1 port1 port2 Model1D PARAMS:
+ R1=740
+ R2=3
+ C= {Cpar}
+ K1=0.00002
+ K2=11.9
+ K3= {Ind}
+ K4=0.42
+ K5=0.00000995
+ L=0
+ Is=0
+ a=0
+ L_Z0=0
+ L_EL=0
+ L_F0=0E6
+ PkZ=26621.9527
.ends LPS3008-473_imp

*======================================================================
* SPICE Model generated by Coilcraft
* Coilcraft Part Number : LPS3008-683
* Inductance = 68uH
*======================================================================
* Model Parameters:
*   Valid Frequency Range = 0.1MHz-20MHz
*   Ambient Temperature = 25 degC
*   Inductor Frequency Model
*   Use model for Frequency Domain simulations
*======================================================================
.subckt LPS3008-683_freq port1 port2 PARAMS: Cpar=1.22pF Ind=68uH
X1 port1 port2 Model1A PARAMS:
+ R1=300
+ R2=4.75
+ C= {Cpar}
+ K1=0.000001
+ K2=21.5
+ K3= {Ind}
+ K4=0.47
+ K5=0.00000998
+ L=0
+ Is=0
+ a=0
+ L_Z0=0
+ L_EL=0
+ L_F0=0E6
+ PkZ=60244.983
.ends LPS3008-683_freq

*======================================================================
* SPICE Model generated by Coilcraft
* Coilcraft Part Number : LPS3008-683
* Inductance = 68uH
*======================================================================
* Model Parameters:
*   Valid Frequency Range = 0.1MHz-20MHz
*   Ambient Temperature = 25 degC
*   Inductor Impedance Model
*   Use model for Time Domain simulations
*======================================================================
.subckt LPS3008-683_imp port1 port2 PARAMS: Cpar=1.18pF Ind=68uH
X1 port1 port2 Model1D PARAMS:
+ R1=300
+ R2=4.75
+ C= {Cpar}
+ K1=0.000001
+ K2=21.5
+ K3= {Ind}
+ K4=0.47
+ K5=0.00000998
+ L=0
+ Is=0
+ a=0
+ L_Z0=0
+ L_EL=0
+ L_F0=0E6
+ PkZ=60244.983
.ends LPS3008-683_imp

*======================================================================
* SPICE Model generated by Coilcraft
* Coilcraft Part Number : LPS3008-104
* Inductance = 100uH
*======================================================================
* Model Parameters:
*   Valid Frequency Range = 0.1MHz-20MHz
*   Ambient Temperature = 25 degC
*   Inductor Frequency Model
*   Use model for Frequency Domain simulations
*======================================================================
.subckt LPS3008-104_freq port1 port2 PARAMS: Cpar=1.106pF Ind=100uH
X1 port1 port2 Model1A PARAMS:
+ R1=265
+ R2=6.85
+ C= {Cpar}
+ K1=0.000001
+ K2=31.9
+ K3= {Ind}
+ K4=0.963
+ K5=0.00001
+ L=0
+ Is=0
+ a=0
+ L_Z0=0
+ L_EL=0
+ L_F0=0E6
+ PkZ=90611.9486
.ends LPS3008-104_freq

*======================================================================
* SPICE Model generated by Coilcraft
* Coilcraft Part Number : LPS3008-104
* Inductance = 100uH
*======================================================================
* Model Parameters:
*   Valid Frequency Range = 0.1MHz-20MHz
*   Ambient Temperature = 25 degC
*   Inductor Impedance Model
*   Use model for Time Domain simulations
*======================================================================
.subckt LPS3008-104_imp port1 port2 PARAMS: Cpar=1.05pF Ind=100uH
X1 port1 port2 Model1D PARAMS:
+ R1=265
+ R2=6.85
+ C= {Cpar}
+ K1=0.000001
+ K2=31.9
+ K3= {Ind}
+ K4=0.963
+ K5=0.00001
+ L=0
+ Is=0
+ a=0
+ L_Z0=0
+ L_EL=0
+ L_F0=0E6
+ PkZ=90611.9486
.ends LPS3008-104_imp

*======================================================================
* SPICE Model generated by Coilcraft
* Coilcraft Part Number : LPS3008-124
* Inductance = 120uH
*======================================================================
* Model Parameters:
*   Valid Frequency Range = 0.1MHz-20MHz
*   Ambient Temperature = 25 degC
*   Inductor Frequency Model
*   Use model for Frequency Domain simulations
*======================================================================
.subckt LPS3008-124_freq port1 port2 PARAMS: Cpar=1.032pF Ind=120uH
X1 port1 port2 Model1A PARAMS:
+ R1=1275
+ R2=7
+ C= {Cpar}
+ K1=0.000001
+ K2=37
+ K3= {Ind}
+ K4=0.684
+ K5=0.00001
+ L=0
+ Is=0
+ a=0
+ L_Z0=0
+ L_EL=0
+ L_F0=0E6
+ PkZ=54744.0492
.ends LPS3008-124_freq

*======================================================================
* SPICE Model generated by Coilcraft
* Coilcraft Part Number : LPS3008-124
* Inductance = 120uH
*======================================================================
* Model Parameters:
*   Valid Frequency Range = 0.1MHz-20MHz
*   Ambient Temperature = 25 degC
*   Inductor Impedance Model
*   Use model for Time Domain simulations
*======================================================================
.subckt LPS3008-124_imp port1 port2 PARAMS: Cpar=1.00pF Ind=120uH
X1 port1 port2 Model1D PARAMS:
+ R1=1275
+ R2=7
+ C= {Cpar}
+ K1=0.000001
+ K2=37
+ K3= {Ind}
+ K4=0.684
+ K5=0.00001
+ L=0
+ Is=0
+ a=0
+ L_Z0=0
+ L_EL=0
+ L_F0=0E6
+ PkZ=54744.0492
.ends LPS3008-124_imp
