*======================================================================
* SPICE Model generated by Coilcraft
* Coilcraft Part Number : LPS4018-561
* Inductance = 0.56uH
*======================================================================
* Model Parameters:
*   Valid Frequency Range = 0.1MHz-100MHz
*   Ambient Temperature = 25 degC
*   Inductor Frequency Model
*   Use model for Frequency Domain simulations
*======================================================================
.subckt LPS4018-561_freq port1 port2 PARAMS: Cpar=1.4pF Ind=0.56uH
X1 port1 port2 Model1A PARAMS:
+ R1=450
+ R2=0.03
+ C= {Cpar}
+ K1=0.00014
+ K2=0.275
+ K3= {Ind}
+ K4=0.01
+ K5=0.0000091
+ L=0
+ Is=0
+ a=0
+ L_Z0=0
+ L_EL=0
+ L_F0=0E6
+ PkZ=797.165709
.ends LPS4018-561_freq

*======================================================================
* SPICE Model generated by Coilcraft
* Coilcraft Part Number : LPS4018-561
* Inductance = 0.56uH
*======================================================================
* Model Parameters:
*   Valid Frequency Range = 0.1MHz-100MHz
*   Ambient Temperature = 25 degC
*   Inductor Impedance Model
*   Use model for Time Domain simulations
*======================================================================
.subckt LPS4018-561_imp port1 port2 PARAMS: Cpar=1.22pF Ind=0.56uH
X1 port1 port2 Model1D PARAMS:
+ R1=450
+ R2=0.03
+ C= {Cpar}
+ K1=0.00014
+ K2=0.275
+ K3= {Ind}
+ K4=0.01
+ K5=0.0000091
+ L=0
+ Is=0
+ a=0
+ L_Z0=0
+ L_EL=0
+ L_F0=0E6
+ PkZ=797.165709
.ends LPS4018-561_imp

*======================================================================
* SPICE Model generated by Coilcraft
* Coilcraft Part Number : LPS4018-102
* Inductance = 1uH
*======================================================================
* Model Parameters:
*   Valid Frequency Range = 0.1MHz-100MHz
*   Ambient Temperature = 25 degC
*   Inductor Frequency Model
*   Use model for Frequency Domain simulations
*======================================================================
.subckt LPS4018-102_freq port1 port2 PARAMS: Cpar=0.85pF Ind=1uH
X1 port1 port2 Model1A PARAMS:
+ R1=550
+ R2=0.04
+ C= {Cpar}
+ K1=0.00012
+ K2=0.195
+ K3= {Ind}
+ K4=0.01
+ K5=0.000009
+ L=0
+ Is=0
+ a=0
+ L_Z0=0
+ L_EL=0
+ L_F0=0E6
+ PkZ=1239.54343
.ends LPS4018-102_freq

*======================================================================
* SPICE Model generated by Coilcraft
* Coilcraft Part Number : LPS4018-102
* Inductance = 1uH
*======================================================================
* Model Parameters:
*   Valid Frequency Range = 0.1MHz-100MHz
*   Ambient Temperature = 25 degC
*   Inductor Impedance Model
*   Use model for Time Domain simulations
*======================================================================
.subckt LPS4018-102_imp port1 port2 PARAMS: Cpar=0.79pF Ind=1uH
X1 port1 port2 Model1D PARAMS:
+ R1=550
+ R2=0.04
+ C= {Cpar}
+ K1=0.00012
+ K2=0.195
+ K3= {Ind}
+ K4=0.01
+ K5=0.000009
+ L=0
+ Is=0
+ a=0
+ L_Z0=0
+ L_EL=0
+ L_F0=0E6
+ PkZ=1239.54343
.ends LPS4018-102_imp

*======================================================================
* SPICE Model generated by Coilcraft
* Coilcraft Part Number : LPS4018-222
* Inductance = 2.2uH
*======================================================================
* Model Parameters:
*   Valid Frequency Range = 0.1MHz-100MHz
*   Ambient Temperature = 25 degC
*   Inductor Frequency Model
*   Use model for Frequency Domain simulations
*======================================================================
.subckt LPS4018-222_freq port1 port2 PARAMS: Cpar=1.34pF Ind=2.2uH
X1 port1 port2 Model1A PARAMS:
+ R1=180
+ R2=0.07
+ C= {Cpar}
+ K1=0.00004
+ K2=0.5
+ K3= {Ind}
+ K4=0.024
+ K5=0.0000094
+ L=0
+ Is=0
+ a=0
+ L_Z0=0
+ L_EL=0
+ L_F0=0E6
+ PkZ=3120.98201
.ends LPS4018-222_freq

*======================================================================
* SPICE Model generated by Coilcraft
* Coilcraft Part Number : LPS4018-222
* Inductance = 2.2uH
*======================================================================
* Model Parameters:
*   Valid Frequency Range = 0.1MHz-100MHz
*   Ambient Temperature = 25 degC
*   Inductor Impedance Model
*   Use model for Time Domain simulations
*======================================================================
.subckt LPS4018-222_imp port1 port2 PARAMS: Cpar=1.24pF Ind=2.2uH
X1 port1 port2 Model1D PARAMS:
+ R1=180
+ R2=0.07
+ C= {Cpar}
+ K1=0.00004
+ K2=0.5
+ K3= {Ind}
+ K4=0.024
+ K5=0.0000094
+ L=0
+ Is=0
+ a=0
+ L_Z0=0
+ L_EL=0
+ L_F0=0E6
+ PkZ=3120.98201
.ends LPS4018-222_imp

*======================================================================
* SPICE Model generated by Coilcraft
* Coilcraft Part Number : LPS4018-332
* Inductance = 3.3uH
*======================================================================
* Model Parameters:
*   Valid Frequency Range = 0.1MHz-100MHz
*   Ambient Temperature = 25 degC
*   Inductor Frequency Model
*   Use model for Frequency Domain simulations
*======================================================================
.subckt LPS4018-332_freq port1 port2 PARAMS: Cpar=2.26pF Ind=3.3uH
X1 port1 port2 Model1A PARAMS:
+ R1=120
+ R2=0.08
+ C= {Cpar}
+ K1=0.00018
+ K2=0.792
+ K3= {Ind}
+ K4=0.083
+ K5=0.0000098
+ L=0
+ Is=0
+ a=0
+ L_Z0=0
+ L_EL=0
+ L_F0=0E6
+ PkZ=3898.51093
.ends LPS4018-332_freq

*======================================================================
* SPICE Model generated by Coilcraft
* Coilcraft Part Number : LPS4018-332
* Inductance = 3.3uH
*======================================================================
* Model Parameters:
*   Valid Frequency Range = 0.1MHz-100MHz
*   Ambient Temperature = 25 degC
*   Inductor Impedance Model
*   Use model for Time Domain simulations
*======================================================================
.subckt LPS4018-332_imp port1 port2 PARAMS: Cpar=1.90pF Ind=3.3uH
X1 port1 port2 Model1D PARAMS:
+ R1=120
+ R2=0.08
+ C= {Cpar}
+ K1=0.00018
+ K2=0.792
+ K3= {Ind}
+ K4=0.083
+ K5=0.0000098
+ L=0
+ Is=0
+ a=0
+ L_Z0=0
+ L_EL=0
+ L_F0=0E6
+ PkZ=3898.51093
.ends LPS4018-332_imp

*======================================================================
* SPICE Model generated by Coilcraft
* Coilcraft Part Number : LPS4018-472
* Inductance = 4.7uH
*======================================================================
* Model Parameters:
*   Valid Frequency Range = 0.1MHz-80MHz
*   Ambient Temperature = 25 degC
*   Inductor Frequency Model
*   Use model for Frequency Domain simulations
*======================================================================
.subckt LPS4018-472_freq port1 port2 PARAMS: Cpar=3.08pF Ind=4.7uH
X1 port1 port2 Model1A PARAMS:
+ R1=160
+ R2=0.125
+ C= {Cpar}
+ K1=0.0002
+ K2=0.89
+ K3= {Ind}
+ K4=0.1
+ K5=0.0000097
+ L=0
+ Is=0
+ a=0
+ L_Z0=0
+ L_EL=0
+ L_F0=0E6
+ PkZ=3479.69289
.ends LPS4018-472_freq

*======================================================================
* SPICE Model generated by Coilcraft
* Coilcraft Part Number : LPS4018-472
* Inductance = 4.7uH
*======================================================================
* Model Parameters:
*   Valid Frequency Range = 0.1MHz-80MHz
*   Ambient Temperature = 25 degC
*   Inductor Impedance Model
*   Use model for Time Domain simulations
*======================================================================
.subckt LPS4018-472_imp port1 port2 PARAMS: Cpar=2.69pF Ind=4.7uH
X1 port1 port2 Model1D PARAMS:
+ R1=160
+ R2=0.125
+ C= {Cpar}
+ K1=0.0002
+ K2=0.89
+ K3= {Ind}
+ K4=0.1
+ K5=0.0000097
+ L=0
+ Is=0
+ a=0
+ L_Z0=0
+ L_EL=0
+ L_F0=0E6
+ PkZ=3479.69289
.ends LPS4018-472_imp

*======================================================================
* SPICE Model generated by Coilcraft
* Coilcraft Part Number : LPS4018-682
* Inductance = 6.8uH
*======================================================================
* Model Parameters:
*   Valid Frequency Range = 0.1MHz-80MHz
*   Ambient Temperature = 25 degC
*   Inductor Frequency Model
*   Use model for Frequency Domain simulations
*======================================================================
.subckt LPS4018-682_freq port1 port2 PARAMS: Cpar=1.7pF Ind=6.8uH
X1 port1 port2 Model1A PARAMS:
+ R1=120
+ R2=0.15
+ C= {Cpar}
+ K1=0.00025
+ K2=1.92
+ K3= {Ind}
+ K4=0.16
+ K5=0.0000099
+ L=0
+ Is=0
+ a=0
+ L_Z0=0
+ L_EL=0
+ L_F0=0E6
+ PkZ=9199.17532
.ends LPS4018-682_freq

*======================================================================
* SPICE Model generated by Coilcraft
* Coilcraft Part Number : LPS4018-682
* Inductance = 6.8uH
*======================================================================
* Model Parameters:
*   Valid Frequency Range = 0.1MHz-80MHz
*   Ambient Temperature = 25 degC
*   Inductor Impedance Model
*   Use model for Time Domain simulations
*======================================================================
.subckt LPS4018-682_imp port1 port2 PARAMS: Cpar=1.45pF Ind=6.8uH
X1 port1 port2 Model1D PARAMS:
+ R1=120
+ R2=0.15
+ C= {Cpar}
+ K1=0.00025
+ K2=1.92
+ K3= {Ind}
+ K4=0.16
+ K5=0.0000099
+ L=0
+ Is=0
+ a=0
+ L_Z0=0
+ L_EL=0
+ L_F0=0E6
+ PkZ=9199.17532
.ends LPS4018-682_imp

*======================================================================
* SPICE Model generated by Coilcraft
* Coilcraft Part Number : LPS4018-103
* Inductance = 10uH
*======================================================================
* Model Parameters:
*   Valid Frequency Range = 0.1MHz-60MHz
*   Ambient Temperature = 25 degC
*   Inductor Frequency Model
*   Use model for Frequency Domain simulations
*======================================================================
.subckt LPS4018-103_freq port1 port2 PARAMS: Cpar=2.98pF Ind=10uH
X1 port1 port2 Model1A PARAMS:
+ R1=170
+ R2=0.2
+ C= {Cpar}
+ K1=0.00022
+ K2=2.05
+ K3= {Ind}
+ K4=0.163
+ K5=0.0000098
+ L=0
+ Is=0
+ a=0
+ L_Z0=0
+ L_EL=0
+ L_F0=0E6
+ PkZ=6945.42145
.ends LPS4018-103_freq

*======================================================================
* SPICE Model generated by Coilcraft
* Coilcraft Part Number : LPS4018-103
* Inductance = 10uH
*======================================================================
* Model Parameters:
*   Valid Frequency Range = 0.1MHz-60MHz
*   Ambient Temperature = 25 degC
*   Inductor Impedance Model
*   Use model for Time Domain simulations
*======================================================================
.subckt LPS4018-103_imp port1 port2 PARAMS: Cpar=2.71pF Ind=10uH
X1 port1 port2 Model1D PARAMS:
+ R1=170
+ R2=0.2
+ C= {Cpar}
+ K1=0.00022
+ K2=2.05
+ K3= {Ind}
+ K4=0.163
+ K5=0.0000098
+ L=0
+ Is=0
+ a=0
+ L_Z0=0
+ L_EL=0
+ L_F0=0E6
+ PkZ=6945.42145
.ends LPS4018-103_imp

*======================================================================
* SPICE Model generated by Coilcraft
* Coilcraft Part Number : LPS4018-153
* Inductance = 15uH
*======================================================================
* Model Parameters:
*   Valid Frequency Range = 0.1MHz-40MHz
*   Ambient Temperature = 25 degC
*   Inductor Frequency Model
*   Use model for Frequency Domain simulations
*======================================================================
.subckt LPS4018-153_freq port1 port2 PARAMS: Cpar=3.42pF Ind=15uH
X1 port1 port2 Model1A PARAMS:
+ R1=240
+ R2=0.26
+ C= {Cpar}
+ K1=0.00017
+ K2=2.31
+ K3= {Ind}
+ K4=0.17
+ K5=0.00000975
+ L=0
+ Is=0
+ a=0
+ L_Z0=0
+ L_EL=0
+ L_F0=0E6
+ PkZ=6746.40567
.ends LPS4018-153_freq

*======================================================================
* SPICE Model generated by Coilcraft
* Coilcraft Part Number : LPS4018-153
* Inductance = 15uH
*======================================================================
* Model Parameters:
*   Valid Frequency Range = 0.1MHz-40MHz
*   Ambient Temperature = 25 degC
*   Inductor Impedance Model
*   Use model for Time Domain simulations
*======================================================================
.subckt LPS4018-153_imp port1 port2 PARAMS: Cpar=3.21pF Ind=15uH
X1 port1 port2 Model1D PARAMS:
+ R1=240
+ R2=0.26
+ C= {Cpar}
+ K1=0.00017
+ K2=2.31
+ K3= {Ind}
+ K4=0.17
+ K5=0.00000975
+ L=0
+ Is=0
+ a=0
+ L_Z0=0
+ L_EL=0
+ L_F0=0E6
+ PkZ=6746.40567
.ends LPS4018-153_imp

*======================================================================
* SPICE Model generated by Coilcraft
* Coilcraft Part Number : LPS4018-183
* Inductance = 18uH
*======================================================================
* Model Parameters:
*   Valid Frequency Range = 0.1MHz-40MHz
*   Ambient Temperature = 25 degC
*   Inductor Frequency Model
*   Use model for Frequency Domain simulations
*======================================================================
.subckt LPS4018-183_freq port1 port2 PARAMS: Cpar=2.14pF Ind=18uH
X1 port1 port2 Model1A PARAMS:
+ R1=14
+ R2=0.27
+ C= {Cpar}
+ K1=0.001
+ K2=4.31
+ K3= {Ind}
+ K4=0.31
+ K5=0.0000097
+ L=0
+ Is=0
+ a=0
+ L_Z0=0
+ L_EL=0
+ L_F0=0E6
+ PkZ=21181.1911
.ends LPS4018-183_freq

*======================================================================
* SPICE Model generated by Coilcraft
* Coilcraft Part Number : LPS4018-183
* Inductance = 18uH
*======================================================================
* Model Parameters:
*   Valid Frequency Range = 0.1MHz-40MHz
*   Ambient Temperature = 25 degC
*   Inductor Impedance Model
*   Use model for Time Domain simulations
*======================================================================
.subckt LPS4018-183_imp port1 port2 PARAMS: Cpar=1.94pF Ind=18uH
X1 port1 port2 Model1D PARAMS:
+ R1=14
+ R2=0.27
+ C= {Cpar}
+ K1=0.001
+ K2=4.31
+ K3= {Ind}
+ K4=0.31
+ K5=0.0000097
+ L=0
+ Is=0
+ a=0
+ L_Z0=0
+ L_EL=0
+ L_F0=0E6
+ PkZ=21181.1911
.ends LPS4018-183_imp

*======================================================================
* SPICE Model generated by Coilcraft
* Coilcraft Part Number : LPS4018-223
* Inductance = 22uH
*======================================================================
* Model Parameters:
*   Valid Frequency Range = 0.1MHz-40MHz
*   Ambient Temperature = 25 degC
*   Inductor Frequency Model
*   Use model for Frequency Domain simulations
*======================================================================
.subckt LPS4018-223_freq port1 port2 PARAMS: Cpar=3.7pF Ind=22uH
X1 port1 port2 Model1A PARAMS:
+ R1=180
+ R2=0.36
+ C= {Cpar}
+ K1=0.00027
+ K2=4.24
+ K3= {Ind}
+ K4=0.21
+ K5=0.0000098
+ L=0
+ Is=0
+ a=0
+ L_Z0=0
+ L_EL=0
+ L_F0=0E6
+ PkZ=11448.9891
.ends LPS4018-223_freq

*======================================================================
* SPICE Model generated by Coilcraft
* Coilcraft Part Number : LPS4018-223
* Inductance = 22uH
*======================================================================
* Model Parameters:
*   Valid Frequency Range = 0.1MHz-40MHz
*   Ambient Temperature = 25 degC
*   Inductor Impedance Model
*   Use model for Time Domain simulations
*======================================================================
.subckt LPS4018-223_imp port1 port2 PARAMS: Cpar=3.52pF Ind=22uH
X1 port1 port2 Model1D PARAMS:
+ R1=180
+ R2=0.36
+ C= {Cpar}
+ K1=0.00027
+ K2=4.24
+ K3= {Ind}
+ K4=0.21
+ K5=0.0000098
+ L=0
+ Is=0
+ a=0
+ L_Z0=0
+ L_EL=0
+ L_F0=0E6
+ PkZ=11448.9891
.ends LPS4018-223_imp

*======================================================================
* SPICE Model generated by Coilcraft
* Coilcraft Part Number : LPS4018-333
* Inductance = 33uH
*======================================================================
* Model Parameters:
*   Valid Frequency Range = 0.1MHz-40MHz
*   Ambient Temperature = 25 degC
*   Inductor Frequency Model
*   Use model for Frequency Domain simulations
*======================================================================
.subckt LPS4018-333_freq port1 port2 PARAMS: Cpar=2.47pF Ind=33uH
X1 port1 port2 Model1A PARAMS:
+ R1=8
+ R2=0.42
+ C= {Cpar}
+ K1=0.0007
+ K2=6.9
+ K3= {Ind}
+ K4=0.538
+ K5=0.00000984
+ L=0
+ Is=0
+ a=0
+ L_Z0=0
+ L_EL=0
+ L_F0=0E6
+ PkZ=28844.8346
.ends LPS4018-333_freq

*======================================================================
* SPICE Model generated by Coilcraft
* Coilcraft Part Number : LPS4018-333
* Inductance = 33uH
*======================================================================
* Model Parameters:
*   Valid Frequency Range = 0.1MHz-40MHz
*   Ambient Temperature = 25 degC
*   Inductor Impedance Model
*   Use model for Time Domain simulations
*======================================================================
.subckt LPS4018-333_imp port1 port2 PARAMS: Cpar=2.26pF Ind=33uH
X1 port1 port2 Model1D PARAMS:
+ R1=8
+ R2=0.42
+ C= {Cpar}
+ K1=0.0007
+ K2=6.9
+ K3= {Ind}
+ K4=0.538
+ K5=0.00000984
+ L=0
+ Is=0
+ a=0
+ L_Z0=0
+ L_EL=0
+ L_F0=0E6
+ PkZ=28844.8346
.ends LPS4018-333_imp

*======================================================================
* SPICE Model generated by Coilcraft
* Coilcraft Part Number : LPS4018-473
* Inductance = 47uH
*======================================================================
* Model Parameters:
*   Valid Frequency Range = 0.1MHz-40MHz
*   Ambient Temperature = 25 degC
*   Inductor Frequency Model
*   Use model for Frequency Domain simulations
*======================================================================
.subckt LPS4018-473_freq port1 port2 PARAMS: Cpar=2.47pF Ind=47uH
X1 port1 port2 Model1A PARAMS:
+ R1=20
+ R2=0.65
+ C= {Cpar}
+ K1=0.00069
+ K2=11.4
+ K3= {Ind}
+ K4=0.653
+ K5=0.0000099
+ L=0
+ Is=0
+ a=0
+ L_Z0=0
+ L_EL=0
+ L_F0=0E6
+ PkZ=42194.8971
.ends LPS4018-473_freq

*======================================================================
* SPICE Model generated by Coilcraft
* Coilcraft Part Number : LPS4018-473
* Inductance = 47uH
*======================================================================
* Model Parameters:
*   Valid Frequency Range = 0.1MHz-40MHz
*   Ambient Temperature = 25 degC
*   Inductor Impedance Model
*   Use model for Time Domain simulations
*======================================================================
.subckt LPS4018-473_imp port1 port2 PARAMS: Cpar=2.30pF Ind=47uH
X1 port1 port2 Model1D PARAMS:
+ R1=20
+ R2=0.65
+ C= {Cpar}
+ K1=0.00069
+ K2=11.4
+ K3= {Ind}
+ K4=0.653
+ K5=0.0000099
+ L=0
+ Is=0
+ a=0
+ L_Z0=0
+ L_EL=0
+ L_F0=0E6
+ PkZ=42194.8971
.ends LPS4018-473_imp

*======================================================================
* SPICE Model generated by Coilcraft
* Coilcraft Part Number : LPS4018-683
* Inductance = 68uH
*======================================================================
* Model Parameters:
*   Valid Frequency Range = 0.1MHz-20MHz
*   Ambient Temperature = 25 degC
*   Inductor Frequency Model
*   Use model for Frequency Domain simulations
*======================================================================
.subckt LPS4018-683_freq port1 port2 PARAMS: Cpar=2.28pF Ind=68uH
X1 port1 port2 Model1A PARAMS:
+ R1=55
+ R2=0.95
+ C= {Cpar}
+ K1=0.00078
+ K2=15
+ K3= {Ind}
+ K4=0.76
+ K5=0.00000989
+ L=0
+ Is=0
+ a=0
+ L_Z0=0
+ L_EL=0
+ L_F0=0E6
+ PkZ=48926.0257
.ends LPS4018-683_freq

*======================================================================
* SPICE Model generated by Coilcraft
* Coilcraft Part Number : LPS4018-683
* Inductance = 68uH
*======================================================================
* Model Parameters:
*   Valid Frequency Range = 0.1MHz-20MHz
*   Ambient Temperature = 25 degC
*   Inductor Impedance Model
*   Use model for Time Domain simulations
*======================================================================
.subckt LPS4018-683_imp port1 port2 PARAMS: Cpar=2.16pF Ind=68uH
X1 port1 port2 Model1D PARAMS:
+ R1=55
+ R2=0.95
+ C= {Cpar}
+ K1=0.00078
+ K2=15
+ K3= {Ind}
+ K4=0.76
+ K5=0.00000989
+ L=0
+ Is=0
+ a=0
+ L_Z0=0
+ L_EL=0
+ L_F0=0E6
+ PkZ=48926.0257
.ends LPS4018-683_imp

*======================================================================
* SPICE Model generated by Coilcraft
* Coilcraft Part Number : LPS4018-104
* Inductance = 100uH
*======================================================================
* Model Parameters:
*   Valid Frequency Range = 0.1MHz-20MHz
*   Ambient Temperature = 25 degC
*   Inductor Frequency Model
*   Use model for Frequency Domain simulations
*======================================================================
.subckt LPS4018-104_freq port1 port2 PARAMS: Cpar=3.43pF Ind=100uH
X1 port1 port2 Model1A PARAMS:
+ R1=10
+ R2=1.4
+ C= {Cpar}
+ K1=0.00088
+ K2=20
+ K3= {Ind}
+ K4=1.81
+ K5=0.00000997
+ L=0
+ Is=0
+ a=0
+ L_Z0=0
+ L_EL=0
+ L_F0=0E6
+ PkZ=58228.6151
.ends LPS4018-104_freq

*======================================================================
* SPICE Model generated by Coilcraft
* Coilcraft Part Number : LPS4018-104
* Inductance = 100uH
*======================================================================
* Model Parameters:
*   Valid Frequency Range = 0.1MHz-20MHz
*   Ambient Temperature = 25 degC
*   Inductor Impedance Model
*   Use model for Time Domain simulations
*======================================================================
.subckt LPS4018-104_imp port1 port2 PARAMS: Cpar=3.15pF Ind=100uH
X1 port1 port2 Model1D PARAMS:
+ R1=10
+ R2=1.4
+ C= {Cpar}
+ K1=0.00088
+ K2=20
+ K3= {Ind}
+ K4=1.81
+ K5=0.00000997
+ L=0
+ Is=0
+ a=0
+ L_Z0=0
+ L_EL=0
+ L_F0=0E6
+ PkZ=58228.6151
.ends LPS4018-104_imp

*======================================================================
* SPICE Model generated by Coilcraft
* Coilcraft Part Number : LPS4018-124
* Inductance = 120uH
*======================================================================
* Model Parameters:
*   Valid Frequency Range = 0.1MHz-20MHz
*   Ambient Temperature = 25 degC
*   Inductor Frequency Model
*   Use model for Frequency Domain simulations
*======================================================================
.subckt LPS4018-124_freq port1 port2 PARAMS: Cpar=3.13pF Ind=120uH
X1 port1 port2 Model1A PARAMS:
+ R1=15
+ R2=1.6
+ C= {Cpar}
+ K1=0.0012
+ K2=24
+ K3= {Ind}
+ K4=1.52
+ K5=0.00000996
+ L=0
+ Is=0
+ a=0
+ L_Z0=0
+ L_EL=0
+ L_F0=0E6
+ PkZ=67370.5364
.ends LPS4018-124_freq

*======================================================================
* SPICE Model generated by Coilcraft
* Coilcraft Part Number : LPS4018-124
* Inductance = 120uH
*======================================================================
* Model Parameters:
*   Valid Frequency Range = 0.1MHz-20MHz
*   Ambient Temperature = 25 degC
*   Inductor Impedance Model
*   Use model for Time Domain simulations
*======================================================================
.subckt LPS4018-124_imp port1 port2 PARAMS: Cpar=2.96pF Ind=120uH
X1 port1 port2 Model1D PARAMS:
+ R1=15
+ R2=1.6
+ C= {Cpar}
+ K1=0.0012
+ K2=24
+ K3= {Ind}
+ K4=1.52
+ K5=0.00000996
+ L=0
+ Is=0
+ a=0
+ L_Z0=0
+ L_EL=0
+ L_F0=0E6
+ PkZ=67370.5364
.ends LPS4018-124_imp

*======================================================================
* SPICE Model generated by Coilcraft
* Coilcraft Part Number : LPS4018-154
* Inductance = 150uH
*======================================================================
* Model Parameters:
*   Valid Frequency Range = 0.1MHz-20MHz
*   Ambient Temperature = 25 degC
*   Inductor Frequency Model
*   Use model for Frequency Domain simulations
*======================================================================
.subckt LPS4018-154_freq port1 port2 PARAMS: Cpar=2.94pF Ind=150uH
X1 port1 port2 Model1A PARAMS:
+ R1=11
+ R2=2
+ C= {Cpar}
+ K1=0.002
+ K2=30
+ K3= {Ind}
+ K4=2.29
+ K5=0.00000996
+ L=0
+ Is=0
+ a=0
+ L_Z0=0
+ L_EL=0
+ L_F0=0E6
+ PkZ=81621.5384
.ends LPS4018-154_freq

*======================================================================
* SPICE Model generated by Coilcraft
* Coilcraft Part Number : LPS4018-154
* Inductance = 150uH
*======================================================================
* Model Parameters:
*   Valid Frequency Range = 0.1MHz-20MHz
*   Ambient Temperature = 25 degC
*   Inductor Impedance Model
*   Use model for Time Domain simulations
*======================================================================
.subckt LPS4018-154_imp port1 port2 PARAMS: Cpar=2.75pF Ind=150uH
X1 port1 port2 Model1D PARAMS:
+ R1=11
+ R2=2
+ C= {Cpar}
+ K1=0.002
+ K2=30
+ K3= {Ind}
+ K4=2.29
+ K5=0.00000996
+ L=0
+ Is=0
+ a=0
+ L_Z0=0
+ L_EL=0
+ L_F0=0E6
+ PkZ=81621.5384
.ends LPS4018-154_imp

*======================================================================
* SPICE Model generated by Coilcraft
* Coilcraft Part Number : LPS4018-184
* Inductance = 180uH
*======================================================================
* Model Parameters:
*   Valid Frequency Range = 0.1MHz-20MHz
*   Ambient Temperature = 25 degC
*   Inductor Frequency Model
*   Use model for Frequency Domain simulations
*======================================================================
.subckt LPS4018-184_freq port1 port2 PARAMS: Cpar=3.15pF Ind=180uH
X1 port1 port2 Model1A PARAMS:
+ R1=10
+ R2=2.5
+ C= {Cpar}
+ K1=0.0023
+ K2=36
+ K3= {Ind}
+ K4=2.6
+ K5=0.00001
+ L=0
+ Is=0
+ a=0
+ L_Z0=0
+ L_EL=0
+ L_F0=0E6
+ PkZ=91942.3237
.ends LPS4018-184_freq

*======================================================================
* SPICE Model generated by Coilcraft
* Coilcraft Part Number : LPS4018-184
* Inductance = 180uH
*======================================================================
* Model Parameters:
*   Valid Frequency Range = 0.1MHz-20MHz
*   Ambient Temperature = 25 degC
*   Inductor Impedance Model
*   Use model for Time Domain simulations
*======================================================================
.subckt LPS4018-184_imp port1 port2 PARAMS: Cpar=2.96pF Ind=180uH
X1 port1 port2 Model1D PARAMS:
+ R1=10
+ R2=2.5
+ C= {Cpar}
+ K1=0.0023
+ K2=36
+ K3= {Ind}
+ K4=2.6
+ K5=0.00001
+ L=0
+ Is=0
+ a=0
+ L_Z0=0
+ L_EL=0
+ L_F0=0E6
+ PkZ=91942.3237
.ends LPS4018-184_imp

*======================================================================
* SPICE Model generated by Coilcraft
* Coilcraft Part Number : LPS4018-224
* Inductance = 220uH
*======================================================================
* Model Parameters:
*   Valid Frequency Range = 0.1MHz-20MHz
*   Ambient Temperature = 25 degC
*   Inductor Frequency Model
*   Use model for Frequency Domain simulations
*======================================================================
.subckt LPS4018-224_freq port1 port2 PARAMS: Cpar=2.7pF Ind=220uH
X1 port1 port2 Model1A PARAMS:
+ R1=18
+ R2=3.7
+ C= {Cpar}
+ K1=0.004
+ K2=50
+ K3= {Ind}
+ K4=2.78
+ K5=0.00001
+ L=0
+ Is=0
+ a=0
+ L_Z0=0
+ L_EL=0
+ L_F0=0E6
+ PkZ=123632.599
.ends LPS4018-224_freq

*======================================================================
* SPICE Model generated by Coilcraft
* Coilcraft Part Number : LPS4018-224
* Inductance = 220uH
*======================================================================
* Model Parameters:
*   Valid Frequency Range = 0.1MHz-20MHz
*   Ambient Temperature = 25 degC
*   Inductor Impedance Model
*   Use model for Time Domain simulations
*======================================================================
.subckt LPS4018-224_imp port1 port2 PARAMS: Cpar=2.56pF Ind=220uH
X1 port1 port2 Model1D PARAMS:
+ R1=18
+ R2=3.7
+ C= {Cpar}
+ K1=0.004
+ K2=50
+ K3= {Ind}
+ K4=2.78
+ K5=0.00001
+ L=0
+ Is=0
+ a=0
+ L_Z0=0
+ L_EL=0
+ L_F0=0E6
+ PkZ=123632.599
.ends LPS4018-224_imp

*======================================================================
* SPICE Model generated by Coilcraft
* Coilcraft Part Number : LPS4018-334
* Inductance = 330uH
*======================================================================
* Model Parameters:
*   Valid Frequency Range = 0.1MHz-10MHz
*   Ambient Temperature = 25 degC
*   Inductor Frequency Model
*   Use model for Frequency Domain simulations
*======================================================================
.subckt LPS4018-334_freq port1 port2 PARAMS: Cpar=3.4pF Ind=330uH
X1 port1 port2 Model1A PARAMS:
+ R1=50
+ R2=5.9
+ C= {Cpar}
+ K1=0.0039
+ K2=80
+ K3= {Ind}
+ K4=4.63
+ K5=0.0000102
+ L=0
+ Is=0
+ a=0
+ L_Z0=0
+ L_EL=0
+ L_F0=0E6
+ PkZ=158892.095
.ends LPS4018-334_freq

*======================================================================
* SPICE Model generated by Coilcraft
* Coilcraft Part Number : LPS4018-334
* Inductance = 330uH
*======================================================================
* Model Parameters:
*   Valid Frequency Range = 0.1MHz-10MHz
*   Ambient Temperature = 25 degC
*   Inductor Impedance Model
*   Use model for Time Domain simulations
*======================================================================
.subckt LPS4018-334_imp port1 port2 PARAMS: Cpar=3.21pF Ind=330uH
X1 port1 port2 Model1D PARAMS:
+ R1=50
+ R2=5.9
+ C= {Cpar}
+ K1=0.0039
+ K2=80
+ K3= {Ind}
+ K4=4.63
+ K5=0.0000102
+ L=0
+ Is=0
+ a=0
+ L_Z0=0
+ L_EL=0
+ L_F0=0E6
+ PkZ=158892.095
.ends LPS4018-334_imp

*======================================================================
* SPICE Model generated by Coilcraft
* Coilcraft Part Number : LPS4018-474
* Inductance = 470uH