*======================================================================
* SPICE Model generated by Coilcraft
* Coilcraft Part Number : LPS4012-331
* Inductance = 0.33uH
*======================================================================
* Model Parameters:
*   Valid Frequency Range = 0.1MHz-100MHz
*   Ambient Temperature = 25 degC
*   Inductor Frequency Model
*   Use model for Frequency Domain simulations
*======================================================================
.subckt LPS4012-331_freq port1 port2 PARAMS: Cpar=1.7pF Ind=0.33uH
X1 port1 port2 Model1A PARAMS:
+ R1=220
+ R2=0.023
+ C= {Cpar}
+ K1=0.00006
+ K2=0.128
+ K3= {Ind}
+ K4=0.007
+ K5=0.0000097
+ L=0
+ Is=0
+ a=0
+ L_Z0=0
+ L_EL=0
+ L_F0=0E6
+ PkZ=601.40718
.ends LPS4012-331_freq

*======================================================================
* SPICE Model generated by Coilcraft
* Coilcraft Part Number : LPS4012-331
* Inductance = 0.33uH
*======================================================================
* Model Parameters:
*   Valid Frequency Range = 0.1MHz-100MHz
*   Ambient Temperature = 25 degC
*   Inductor Impedance Model
*   Use model for Time Domain simulations
*======================================================================
.subckt LPS4012-331_imp port1 port2 PARAMS: Cpar=1.42pF Ind=0.33uH
X1 port1 port2 Model1D PARAMS:
+ R1=220
+ R2=0.023
+ C= {Cpar}
+ K1=0.00006
+ K2=0.128
+ K3= {Ind}
+ K4=0.007
+ K5=0.0000097
+ L=0
+ Is=0
+ a=0
+ L_Z0=0
+ L_EL=0
+ L_F0=0E6
+ PkZ=601.40718
.ends LPS4012-331_imp

*======================================================================
* SPICE Model generated by Coilcraft
* Coilcraft Part Number : LPS4012-681
* Inductance = 0.68uH
*======================================================================
* Model Parameters:
*   Valid Frequency Range = 0.1MHz-200MHz
*   Ambient Temperature = 25 degC
*   Inductor Frequency Model
*   Use model for Frequency Domain simulations
*======================================================================
.subckt LPS4012-681_freq port1 port2 PARAMS: Cpar=0.79pF Ind=0.68uH
X1 port1 port2 Model1A PARAMS:
+ R1=550
+ R2=0.055
+ C= {Cpar}
+ K1=0.000002
+ K2=0.191
+ K3= {Ind}
+ K4=0.012
+ K5=0.0000097
+ L=0
+ Is=0
+ a=0
+ L_Z0=0
+ L_EL=0
+ L_F0=0E6
+ PkZ=1074.22391
.ends LPS4012-681_freq

*======================================================================
* SPICE Model generated by Coilcraft
* Coilcraft Part Number : LPS4012-681
* Inductance = 0.68uH
*======================================================================
* Model Parameters:
*   Valid Frequency Range = 0.1MHz-200MHz
*   Ambient Temperature = 25 degC
*   Inductor Impedance Model
*   Use model for Time Domain simulations
*======================================================================
.subckt LPS4012-681_imp port1 port2 PARAMS: Cpar=0.68pF Ind=0.68uH
X1 port1 port2 Model1D PARAMS:
+ R1=550
+ R2=0.055
+ C= {Cpar}
+ K1=0.000002
+ K2=0.191
+ K3= {Ind}
+ K4=0.012
+ K5=0.0000097
+ L=0
+ Is=0
+ a=0
+ L_Z0=0
+ L_EL=0
+ L_F0=0E6
+ PkZ=1074.22391
.ends LPS4012-681_imp

*======================================================================
* SPICE Model generated by Coilcraft
* Coilcraft Part Number : LPS4012-102
* Inductance = 1uH
*======================================================================
* Model Parameters:
*   Valid Frequency Range = 0.1MHz-100MHz
*   Ambient Temperature = 25 degC
*   Inductor Frequency Model
*   Use model for Frequency Domain simulations
*======================================================================
.subckt LPS4012-102_freq port1 port2 PARAMS: Cpar=2.06pF Ind=1uH
X1 port1 port2 Model1A PARAMS:
+ R1=155
+ R2=0.06
+ C= {Cpar}
+ K1=0.00006
+ K2=0.21
+ K3= {Ind}
+ K4=0.024
+ K5=0.0000097
+ L=0
+ Is=0
+ a=0
+ L_Z0=0
+ L_EL=0
+ L_F0=0E6
+ PkZ=1248.5311
.ends LPS4012-102_freq

*======================================================================
* SPICE Model generated by Coilcraft
* Coilcraft Part Number : LPS4012-102
* Inductance = 1uH
*======================================================================
* Model Parameters:
*   Valid Frequency Range = 0.1MHz-100MHz
*   Ambient Temperature = 25 degC
*   Inductor Impedance Model
*   Use model for Time Domain simulations
*======================================================================
.subckt LPS4012-102_imp port1 port2 PARAMS: Cpar=1.71pF Ind=1uH
X1 port1 port2 Model1D PARAMS:
+ R1=155
+ R2=0.06
+ C= {Cpar}
+ K1=0.00006
+ K2=0.21
+ K3= {Ind}
+ K4=0.024
+ K5=0.0000097
+ L=0
+ Is=0
+ a=0
+ L_Z0=0
+ L_EL=0
+ L_F0=0E6
+ PkZ=1248.5311
.ends LPS4012-102_imp

*======================================================================
* SPICE Model generated by Coilcraft
* Coilcraft Part Number : LPS4012-152
* Inductance = 1.5uH
*======================================================================
* Model Parameters:
*   Valid Frequency Range = 0.1MHz-100MHz
*   Ambient Temperature = 25 degC
*   Inductor Frequency Model
*   Use model for Frequency Domain simulations
*======================================================================
.subckt LPS4012-152_freq port1 port2 PARAMS: Cpar=2.36pF Ind=1.5uH
X1 port1 port2 Model1A PARAMS:
+ R1=160
+ R2=0.07
+ C= {Cpar}
+ K1=0.00008
+ K2=0.29
+ K3= {Ind}
+ K4=0.034
+ K5=0.0000097
+ L=0
+ Is=0
+ a=0
+ L_Z0=0
+ L_EL=0
+ L_F0=0E6
+ PkZ=1543.57867
.ends LPS4012-152_freq

*======================================================================
* SPICE Model generated by Coilcraft
* Coilcraft Part Number : LPS4012-152
* Inductance = 1.5uH
*======================================================================
* Model Parameters:
*   Valid Frequency Range = 0.1MHz-100MHz
*   Ambient Temperature = 25 degC
*   Inductor Impedance Model
*   Use model for Time Domain simulations
*======================================================================
.subckt LPS4012-152_imp port1 port2 PARAMS: Cpar=2.00pF Ind=1.5uH
X1 port1 port2 Model1D PARAMS:
+ R1=160
+ R2=0.07
+ C= {Cpar}
+ K1=0.00008
+ K2=0.29
+ K3= {Ind}
+ K4=0.034
+ K5=0.0000097
+ L=0
+ Is=0
+ a=0
+ L_Z0=0
+ L_EL=0
+ L_F0=0E6
+ PkZ=1543.57867
.ends LPS4012-152_imp

*======================================================================
* SPICE Model generated by Coilcraft
* Coilcraft Part Number : LPS4012-222
* Inductance = 2.2uH
*======================================================================
* Model Parameters:
*   Valid Frequency Range = 0.1MHz-100MHz
*   Ambient Temperature = 25 degC
*   Inductor Frequency Model
*   Use model for Frequency Domain simulations
*======================================================================
.subckt LPS4012-222_freq port1 port2 PARAMS: Cpar=2.36pF Ind=2.2uH
X1 port1 port2 Model1A PARAMS:
+ R1=110
+ R2=0.1
+ C= {Cpar}
+ K1=0.00009
+ K2=0.425
+ K3= {Ind}
+ K4=0.034
+ K5=0.0000096
+ L=0
+ Is=0
+ a=0
+ L_Z0=0
+ L_EL=0
+ L_F0=0E6
+ PkZ=2470.68022
.ends LPS4012-222_freq

*======================================================================
* SPICE Model generated by Coilcraft
* Coilcraft Part Number : LPS4012-222
* Inductance = 2.2uH
*======================================================================
* Model Parameters:
*   Valid Frequency Range = 0.1MHz-100MHz
*   Ambient Temperature = 25 degC
*   Inductor Impedance Model
*   Use model for Time Domain simulations
*======================================================================
.subckt LPS4012-222_imp port1 port2 PARAMS: Cpar=2.12pF Ind=2.2uH
X1 port1 port2 Model1D PARAMS:
+ R1=110
+ R2=0.1
+ C= {Cpar}
+ K1=0.00009
+ K2=0.425
+ K3= {Ind}
+ K4=0.034
+ K5=0.0000096
+ L=0
+ Is=0
+ a=0
+ L_Z0=0
+ L_EL=0
+ L_F0=0E6
+ PkZ=2470.68022
.ends LPS4012-222_imp

*======================================================================
* SPICE Model generated by Coilcraft
* Coilcraft Part Number : LPS4012-332
* Inductance = 3.3uH
*======================================================================
* Model Parameters:
*   Valid Frequency Range = 0.1MHz-100MHz
*   Ambient Temperature = 25 degC
*   Inductor Frequency Model
*   Use model for Frequency Domain simulations
*======================================================================
.subckt LPS4012-332_freq port1 port2 PARAMS: Cpar=2.35pF Ind=3.3uH
X1 port1 port2 Model1A PARAMS:
+ R1=165
+ R2=0.1
+ C= {Cpar}
+ K1=0.00014
+ K2=0.35
+ K3= {Ind}
+ K4=0.085
+ K5=0.0000096
+ L=0
+ Is=0
+ a=0
+ L_Z0=0
+ L_EL=0
+ L_F0=0E6
+ PkZ=1999.45603
.ends LPS4012-332_freq

*======================================================================
* SPICE Model generated by Coilcraft
* Coilcraft Part Number : LPS4012-332
* Inductance = 3.3uH
*======================================================================
* Model Parameters:
*   Valid Frequency Range = 0.1MHz-100MHz
*   Ambient Temperature = 25 degC
*   Inductor Impedance Model
*   Use model for Time Domain simulations
*======================================================================
.subckt LPS4012-332_imp port1 port2 PARAMS: Cpar=1.97pF Ind=3.3uH
X1 port1 port2 Model1D PARAMS:
+ R1=165
+ R2=0.1
+ C= {Cpar}
+ K1=0.00014
+ K2=0.35
+ K3= {Ind}
+ K4=0.085
+ K5=0.0000096
+ L=0
+ Is=0
+ a=0
+ L_Z0=0
+ L_EL=0
+ L_F0=0E6
+ PkZ=1999.45603
.ends LPS4012-332_imp

*======================================================================
* SPICE Model generated by Coilcraft
* Coilcraft Part Number : LPS4012-472
* Inductance = 4.7uH
*======================================================================
* Model Parameters:
*   Valid Frequency Range = 0.1MHz-100MHz
*   Ambient Temperature = 25 degC
*   Inductor Frequency Model
*   Use model for Frequency Domain simulations
*======================================================================
.subckt LPS4012-472_freq port1 port2 PARAMS: Cpar=2.41pF Ind=4.7uH
X1 port1 port2 Model1A PARAMS:
+ R1=165
+ R2=0.175
+ C= {Cpar}
+ K1=0.00007
+ K2=0.598
+ K3= {Ind}
+ K4=0.085
+ K5=0.0000097
+ L=0
+ Is=0
+ a=0
+ L_Z0=0
+ L_EL=0
+ L_F0=0E6
+ PkZ=3027.29568
.ends LPS4012-472_freq

*======================================================================
* SPICE Model generated by Coilcraft
* Coilcraft Part Number : LPS4012-472
* Inductance = 4.7uH
*======================================================================
* Model Parameters:
*   Valid Frequency Range = 0.1MHz-100MHz
*   Ambient Temperature = 25 degC
*   Inductor Impedance Model
*   Use model for Time Domain simulations
*======================================================================
.subckt LPS4012-472_imp port1 port2 PARAMS: Cpar=2.14pF Ind=4.7uH
X1 port1 port2 Model1D PARAMS:
+ R1=165
+ R2=0.175
+ C= {Cpar}
+ K1=0.00007
+ K2=0.598
+ K3= {Ind}
+ K4=0.085
+ K5=0.0000097
+ L=0
+ Is=0
+ a=0
+ L_Z0=0
+ L_EL=0
+ L_F0=0E6
+ PkZ=3027.29568
.ends LPS4012-472_imp

*======================================================================
* SPICE Model generated by Coilcraft
* Coilcraft Part Number : LPS4012-562
* Inductance = 5.6uH
*======================================================================
* Model Parameters:
*   Valid Frequency Range = 0.1MHz-100MHz
*   Ambient Temperature = 25 degC
*   Inductor Frequency Model
*   Use model for Frequency Domain simulations
*======================================================================
.subckt LPS4012-562_freq port1 port2 PARAMS: Cpar=2.8pF Ind=5.6uH
X1 port1 port2 Model1A PARAMS:
+ R1=240
+ R2=0.26
+ C= {Cpar}
+ K1=0.00005
+ K2=0.695
+ K3= {Ind}
+ K4=0.111
+ K5=0.0000098
+ L=0
+ Is=0
+ a=0
+ L_Z0=0
+ L_EL=0
+ L_F0=0E6
+ PkZ=2834.74619
.ends LPS4012-562_freq

*======================================================================
* SPICE Model generated by Coilcraft
* Coilcraft Part Number : LPS4012-562
* Inductance = 5.6uH
*======================================================================
* Model Parameters:
*   Valid Frequency Range = 0.1MHz-100MHz
*   Ambient Temperature = 25 degC
*   Inductor Impedance Model
*   Use model for Time Domain simulations
*======================================================================
.subckt LPS4012-562_imp port1 port2 PARAMS: Cpar=2.47pF Ind=5.6uH
X1 port1 port2 Model1D PARAMS:
+ R1=240
+ R2=0.26
+ C= {Cpar}
+ K1=0.00005
+ K2=0.695
+ K3= {Ind}
+ K4=0.111
+ K5=0.0000098
+ L=0
+ Is=0
+ a=0
+ L_Z0=0
+ L_EL=0
+ L_F0=0E6
+ PkZ=2834.74619
.ends LPS4012-562_imp

*======================================================================
* SPICE Model generated by Coilcraft
* Coilcraft Part Number : LPS4012-682
* Inductance = 6.8uH
*======================================================================
* Model Parameters:
*   Valid Frequency Range = 0.1MHz-80MHz
*   Ambient Temperature = 25 degC
*   Inductor Frequency Model
*   Use model for Frequency Domain simulations
*======================================================================
.subckt LPS4012-682_freq port1 port2 PARAMS: Cpar=3.36pF Ind=6.8uH
X1 port1 port2 Model1A PARAMS:
+ R1=105
+ R2=0.34
+ C= {Cpar}
+ K1=0.00005
+ K2=1.1
+ K3= {Ind}
+ K4=0.12
+ K5=0.0000099
+ L=0
+ Is=0
+ a=0
+ L_Z0=0
+ L_EL=0
+ L_F0=0E6
+ PkZ=4739.0343
.ends LPS4012-682_freq

*======================================================================
* SPICE Model generated by Coilcraft
* Coilcraft Part Number : LPS4012-682
* Inductance = 6.8uH
*======================================================================
* Model Parameters:
*   Valid Frequency Range = 0.1MHz-80MHz
*   Ambient Temperature = 25 degC
*   Inductor Impedance Model
*   Use model for Time Domain simulations
*======================================================================
.subckt LPS4012-682_imp port1 port2 PARAMS: Cpar=3.02pF Ind=6.8uH
X1 port1 port2 Model1D PARAMS:
+ R1=105
+ R2=0.34
+ C= {Cpar}
+ K1=0.00005
+ K2=1.1
+ K3= {Ind}
+ K4=0.12
+ K5=0.0000099
+ L=0
+ Is=0
+ a=0
+ L_Z0=0
+ L_EL=0
+ L_F0=0E6
+ PkZ=4739.0343
.ends LPS4012-682_imp

*======================================================================
* SPICE Model generated by Coilcraft
* Coilcraft Part Number : LPS4012-103
* Inductance = 10uH
*======================================================================
* Model Parameters:
*   Valid Frequency Range = 0.1MHz-60MHz
*   Ambient Temperature = 25 degC
*   Inductor Frequency Model
*   Use model for Frequency Domain simulations
*======================================================================
.subckt LPS4012-103_freq port1 port2 PARAMS: Cpar=2.14pF Ind=10uH
X1 port1 port2 Model1A PARAMS:
+ R1=400
+ R2=0.35
+ C= {Cpar}
+ K1=0.00001
+ K2=0.95
+ K3= {Ind}
+ K4=0.158
+ K5=0.0000097
+ L=0
+ Is=0
+ a=0
+ L_Z0=0
+ L_EL=0
+ L_F0=0E6
+ PkZ=3750.64152
.ends LPS4012-103_freq

*======================================================================
* SPICE Model generated by Coilcraft
* Coilcraft Part Number : LPS4012-103
* Inductance = 10uH
*======================================================================
* Model Parameters:
*   Valid Frequency Range = 0.1MHz-60MHz
*   Ambient Temperature = 25 degC
*   Inductor Impedance Model
*   Use model for Time Domain simulations
*======================================================================
.subckt LPS4012-103_imp port1 port2 PARAMS: Cpar=1.94pF Ind=10uH
X1 port1 port2 Model1D PARAMS:
+ R1=400
+ R2=0.35
+ C= {Cpar}
+ K1=0.00001
+ K2=0.95
+ K3= {Ind}
+ K4=0.158
+ K5=0.0000097
+ L=0
+ Is=0
+ a=0
+ L_Z0=0
+ L_EL=0
+ L_F0=0E6
+ PkZ=3750.64152
.ends LPS4012-103_imp

*======================================================================
* SPICE Model generated by Coilcraft
* Coilcraft Part Number : LPS4012-153
* Inductance = 15uH
*======================================================================
* Model Parameters:
*   Valid Frequency Range = 0.1MHz-40MHz
*   Ambient Temperature = 25 degC
*   Inductor Frequency Model
*   Use model for Frequency Domain simulations
*======================================================================
.subckt LPS4012-153_freq port1 port2 PARAMS: Cpar=3.25pF Ind=15uH
X1 port1 port2 Model1A PARAMS:
+ R1=300
+ R2=0.55
+ C= {Cpar}
+ K1=0.000001
+ K2=2.08
+ K3= {Ind}
+ K4=0.245
+ K5=0.0000099
+ L=0
+ Is=0
+ a=0
+ L_Z0=0
+ L_EL=0
+ L_F0=0E6
+ PkZ=5933.65575
.ends LPS4012-153_freq

*======================================================================
* SPICE Model generated by Coilcraft
* Coilcraft Part Number : LPS4012-153
* Inductance = 15uH
*======================================================================
* Model Parameters:
*   Valid Frequency Range = 0.1MHz-40MHz
*   Ambient Temperature = 25 degC
*   Inductor Impedance Model
*   Use model for Time Domain simulations
*======================================================================
.subckt LPS4012-153_imp port1 port2 PARAMS: Cpar=2.96pF Ind=15uH
X1 port1 port2 Model1D PARAMS:
+ R1=300
+ R2=0.55
+ C= {Cpar}
+ K1=0.000001
+ K2=2.08
+ K3= {Ind}
+ K4=0.245
+ K5=0.0000099
+ L=0
+ Is=0
+ a=0
+ L_Z0=0
+ L_EL=0
+ L_F0=0E6
+ PkZ=5933.65575
.ends LPS4012-153_imp

*======================================================================
* SPICE Model generated by Coilcraft
* Coilcraft Part Number : LPS4012-223
* Inductance = 22uH
*======================================================================
* Model Parameters:
*   Valid Frequency Range = 0.1MHz-40MHz
*   Ambient Temperature = 25 degC
*   Inductor Frequency Model
*   Use model for Frequency Domain simulations
*======================================================================
.subckt LPS4012-223_freq port1 port2 PARAMS: Cpar=3.27pF Ind=22uH
X1 port1 port2 Model1A PARAMS:
+ R1=200
+ R2=0.6
+ C= {Cpar}
+ K1=0.00035
+ K2=3.4
+ K3= {Ind}
+ K4=0.41
+ K5=0.00000982
+ L=0
+ Is=0
+ a=0
+ L_Z0=0
+ L_EL=0
+ L_F0=0E6
+ PkZ=10081.1422
.ends LPS4012-223_freq

*======================================================================
* SPICE Model generated by Coilcraft
* Coilcraft Part Number : LPS4012-223
* Inductance = 22uH
*======================================================================
* Model Parameters:
*   Valid Frequency Range = 0.1MHz-40MHz
*   Ambient Temperature = 25 degC
*   Inductor Impedance Model
*   Use model for Time Domain simulations
*======================================================================
.subckt LPS4012-223_imp port1 port2 PARAMS: Cpar=2.95pF Ind=22uH
X1 port1 port2 Model1D PARAMS:
+ R1=200
+ R2=0.6
+ C= {Cpar}
+ K1=0.00035
+ K2=3.4
+ K3= {Ind}
+ K4=0.41
+ K5=0.00000982
+ L=0
+ Is=0
+ a=0
+ L_Z0=0
+ L_EL=0
+ L_F0=0E6
+ PkZ=10081.1422
.ends LPS4012-223_imp

*======================================================================
* SPICE Model generated by Coilcraft
* Coilcraft Part Number : LPS4012-333
* Inductance = 33uH
*======================================================================
* Model Parameters:
*   Valid Frequency Range = 0.1MHz-40MHz
*   Ambient Temperature = 25 degC
*   Inductor Frequency Model
*   Use model for Frequency Domain simulations
*======================================================================
.subckt LPS4012-333_freq port1 port2 PARAMS: Cpar=1.49pF Ind=33uH
X1 port1 port2 Model1A PARAMS:
+ R1=16
+ R2=0.825
+ C= {Cpar}
+ K1=0.0002
+ K2=5.57
+ K3= {Ind}
+ K4=0.452
+ K5=0.00000986
+ L=0
+ Is=0
+ a=0
+ L_Z0=0
+ L_EL=0
+ L_F0=0E6
+ PkZ=26460.3067
.ends LPS4012-333_freq

*======================================================================
* SPICE Model generated by Coilcraft
* Coilcraft Part Number : LPS4012-333
* Inductance = 33uH
*======================================================================
* Model Parameters:
*   Valid Frequency Range = 0.1MHz-40MHz
*   Ambient Temperature = 25 degC
*   Inductor Impedance Model
*   Use model for Time Domain simulations
*======================================================================
.subckt LPS4012-333_imp port1 port2 PARAMS: Cpar=1.38pF Ind=33uH
X1 port1 port2 Model1D PARAMS:
+ R1=16
+ R2=0.825
+ C= {Cpar}
+ K1=0.0002
+ K2=5.57
+ K3= {Ind}
+ K4=0.452
+ K5=0.00000986
+ L=0
+ Is=0
+ a=0
+ L_Z0=0
+ L_EL=0
+ L_F0=0E6
+ PkZ=26460.3067
.ends LPS4012-333_imp

*======================================================================
* SPICE Model generated by Coilcraft
* Coilcraft Part Number : LPS4012-473
* Inductance = 47uH
*======================================================================
* Model Parameters:
*   Valid Frequency Range = 0.1MHz-40MHz
*   Ambient Temperature = 25 degC
*   Inductor Frequency Model
*   Use model for Frequency Domain simulations
*======================================================================
.subckt LPS4012-473_freq port1 port2 PARAMS: Cpar=1.83pF Ind=47uH
X1 port1 port2 Model1A PARAMS:
+ R1=55
+ R2=1.4
+ C= {Cpar}
+ K1=0.000001
+ K2=11.6
+ K3= {Ind}
+ K4=0.452
+ K5=0.00000996
+ L=0
+ Is=0
+ a=0
+ L_Z0=0
+ L_EL=0
+ L_F0=0E6
+ PkZ=43859.8479
.ends LPS4012-473_freq

*======================================================================
* SPICE Model generated by Coilcraft
* Coilcraft Part Number : LPS4012-473
* Inductance = 47uH
*======================================================================
* Model Parameters:
*   Valid Frequency Range = 0.1MHz-40MHz
*   Ambient Temperature = 25 degC
*   Inductor Impedance Model
*   Use model for Time Domain simulations
*======================================================================
.subckt LPS4012-473_imp port1 port2 PARAMS: Cpar=1.74pF Ind=47uH
X1 port1 port2 Model1D PARAMS:
+ R1=55
+ R2=1.4
+ C= {Cpar}
+ K1=0.000001
+ K2=11.6
+ K3= {Ind}
+ K4=0.452
+ K5=0.00000996
+ L=0
+ Is=0
+ a=0
+ L_Z0=0
+ L_EL=0
+ L_F0=0E6
+ PkZ=43859.8479
.ends LPS4012-473_imp

*======================================================================
* SPICE Model generated by Coilcraft
* Coilcraft Part Number : LPS4012-683
* Inductance = 68uH
*======================================================================
* Model Parameters:
*   Valid Frequency Range = 0.1MHz-30MHz
*   Ambient Temperature = 25 degC
*   Inductor Frequency Model
*   Use model for Frequency Domain simulations
*======================================================================
.subckt LPS4012-683_freq port1 port2 PARAMS: Cpar=1.32pF Ind=68uH
X1 port1 port2 Model1A PARAMS:
+ R1=170
+ R2=1.7
+ C= {Cpar}
+ K1=0.00002
+ K2=16
+ K3= {Ind}
+ K4=0.62
+ K5=0.00000996
+ L=0
+ Is=0
+ a=0
+ L_Z0=0
+ L_EL=0
+ L_F0=0E6
+ PkZ=53969.9176
.ends LPS4012-683_freq

*======================================================================
* SPICE Model generated by Coilcraft
* Coilcraft Part Number : LPS4012-683
* Inductance = 68uH
*======================================================================
* Model Parameters:
*   Valid Frequency Range = 0.1MHz-30MHz
*   Ambient Temperature = 25 degC
*   Inductor Impedance Model
*   Use model for Time Domain simulations
*======================================================================
.subckt LPS4012-683_imp port1 port2 PARAMS: Cpar=1.26pF Ind=68uH
X1 port1 port2 Model1D PARAMS:
+ R1=170
+ R2=1.7
+ C= {Cpar}
+ K1=0.00002
+ K2=16
+ K3= {Ind}
+ K4=0.62
+ K5=0.00000996
+ L=0
+ Is=0
+ a=0
+ L_Z0=0
+ L_EL=0
+ L_F0=0E6
+ PkZ=53969.9176
.ends LPS4012-683_imp

*======================================================================
* SPICE Model generated by Coilcraft
* Coilcraft Part Number : LPS4012-104
* Inductance = 100uH
*======================================================================
* Model Parameters:
*   Valid Frequency Range = 0.1MHz-20MHz
*   Ambient Temperature = 25 degC
*   Inductor Frequency Model
*   Use model for Frequency Domain simulations
*======================================================================
.subckt LPS4012-104_freq port1 port2 PARAMS: Cpar=3.12pF Ind=100uH
X1 port1 port2 Model1A PARAMS:
+ R1=1000
+ R2=2.4
+ C= {Cpar}
+ K1=0.000001
+ K2=18
+ K3= {Ind}
+ K4=0.46
+ K5=0.00001
+ L=0
+ Is=0
+ a=0
+ L_Z0=0
+ L_EL=0
+ L_F0=0E6
+ PkZ=20165.5154
.ends LPS4012-104_freq

*======================================================================
* SPICE Model generated by Coilcraft
* Coilcraft Part Number : LPS4012-104
* Inductance = 100uH
*======================================================================
* Model Parameters:
*   Valid Frequency Range = 0.1MHz-20MHz
*   Ambient Temperature = 25 degC
*   Inductor Impedance Model
*   Use model for Time Domain simulations
*======================================================================
.subckt LPS4012-104_imp port1 port2 PARAMS: Cpar=3.06pF Ind=100uH
X1 port1 port2 Model1D PARAMS:
+ R1=1000
+ R2=2.4
+ C= {Cpar}
+ K1=0.000001
+ K2=18
+ K3= {Ind}
+ K4=0.46
+ K5=0.00001
+ L=0
+ Is=0
+ a=0
+ L_Z0=0
+ L_EL=0
+ L_F0=0E6
+ PkZ=20165.5154
.ends LPS4012-104_imp

*======================================================================
* SPICE Model generated by Coilcraft
* Coilcraft Part Number : LPS4012-124
* Inductance = 120uH
*======================================================================
* Model Parameters:
*   Valid Frequency Range = 0.1MHz-20MHz
*   Ambient Temperature = 25 degC
*   Inductor Frequency Model
*   Use model for Frequency Domain simulations
*======================================================================
.subckt LPS4012-124_freq port1 port2 PARAMS: Cpar=1.93pF Ind=120uH
X1 port1 port2 Model1A PARAMS:
+ R1=150
+ R2=3.3
+ C= {Cpar}
+ K1=0.0004
+ K2=30
+ K3= {Ind}
+ K4=1.2
+ K5=0.00001
+ L=0
+ Is=0
+ a=0
+ L_Z0=0
+ L_EL=0
+ L_F0=0E6
+ PkZ=78514.276
.ends LPS4012-124_freq

*======================================================================
* SPICE Model generated by Coilcraft
* Coilcraft Part Number : LPS4012-124
* Inductance = 120uH
*======================================================================
* Model Parameters:
*   Valid Frequency Range = 0.1MHz-20MHz
*   Ambient Temperature = 25 degC
*   Inductor Impedance Model
*   Use model for Time Domain simulations
*======================================================================
.subckt LPS4012-124_imp port1 port2 PARAMS: Cpar=1.84pF Ind=120uH
X1 port1 port2 Model1D PARAMS:
+ R1=150
+ R2=3.3
+ C= {Cpar}
+ K1=0.0004
+ K2=30
+ K3= {Ind}
+ K4=1.2
+ K5=0.00001
+ L=0
+ Is=0
+ a=0
+ L_Z0=0
+ L_EL=0
+ L_F0=0E6
+ PkZ=78514.276
.ends LPS4012-124_imp

*======================================================================
* SPICE Model generated by Coilcraft
* Coilcraft Part Number : LPS4012-154
* Inductance = 150uH
*======================================================================
* Model Parameters:
*   Valid Frequency Range = 0.1MHz-10MHz
*   Ambient Temperature = 25 degC
*   Inductor Frequency Model
*   Use model for Frequency Domain simulations
*======================================================================
.subckt LPS4012-154_freq port1 port2 PARAMS: Cpar=8.6pF Ind=150uH
X1 port1 port2 Model1A PARAMS:
+ R1=3300
+ R2=3.5
+ C= {Cpar}
+ K1=0.000001
+ K2=9.05
+ K3= {Ind}
+ K4=0.8
+ K5=0.00000897
+ L=0
+ Is=0
+ a=0
+ L_Z0=0
+ L_EL=0
+ L_F0=0E6
+ PkZ=5146.42977
.ends LPS4012-154_freq

*======================================================================
* SPICE Model generated by Coilcraft
* Coilcraft Part Number : LPS4012-154
* Inductance = 150uH
*======================================================================
* Model Parameters:
*   Valid Frequency Range = 0.1MHz-10MHz
*   Ambient Temperature = 25 degC
*   Inductor Impedance Model
*   Use model for Time Domain simulations
*======================================================================
.subckt LPS4012-154_imp port1 port2 PARAMS: Cpar=8.43pF Ind=150uH
X1 port1 port2 Model1D PARAMS:
+ R1=3300
+ R2=3.5
+ C= {Cpar}
+ K1=0.000001
+ K2=9.05
+ K3= {Ind}
+ K4=0.8
+ K5=0.00000897
+ L=0
+ Is=0
+ a=0
+ L_Z0=0
+ L_EL=0
+ L_F0=0E6
+ PkZ=5146.42977
.ends LPS4012-154_imp

*======================================================================
* SPICE Model generated by Coilcraft
* Coilcraft Part Number : LPS4012-184
* Inductance = 180uH
*======================================================================
* Model Parameters:
*   Valid Frequency Range = 0.1MHz-10MHz
*   Ambient Temperature = 25 degC
*   Inductor Frequency Model
*   Use model for Frequency Domain simulations
*======================================================================
.subckt LPS4012-184_freq port1 port2 PARAMS: Cpar=1.88pF Ind=180uH
X1 port1 port2 Model1A PARAMS:
+ R1=170
+ R2=5
+ C= {Cpar}
+ K1=0.000001
+ K2=44
+ K3= {Ind}
+ K4=1.23
+ K5=0.0000101
+ L=0
+ Is=0
+ a=0
+ L_Z0=0
+ L_EL=0
+ L_F0=0E6
+ PkZ=105289.396
.ends LPS4012-184_freq

*======================================================================
* SPICE Model generated by Coilcraft
* Coilcraft Part Number : LPS4012-184
* Inductance = 180uH
*======================================================================
* Model Parameters:
*   Valid Frequency Range = 0.1MHz-10MHz
*   Ambient Temperature = 25 degC
*   Inductor Impedance Model
*   Use model for Time Domain simulations
*======================================================================
.subckt LPS4012-184_imp port1 port2 PARAMS: Cpar=1.82pF Ind=180uH
X1 port1 port2 Model1D PARAMS:
+ R1=170
+ R2=5
+ C= {Cpar}
+ K1=0.000001
+ K2=44
+ K3= {Ind}
+ K4=1.23
+ K5=0.0000101
+ L=0
+ Is=0
+ a=0
+ L_Z0=0
+ L_EL=0
+ L_F0=0E6
+ PkZ=105289.396
.ends LPS4012-184_imp

*======================================================================