*======================================================================
* SPICE Model generated by Coilcraft
* Coilcraft Part Number : LPS5010-152
* Inductance = 1.5uH
*======================================================================
* Model Parameters:
*   Valid Frequency Range = 0.1MHz-150MHz
*   Ambient Temperature = 25 degC
*   Inductor Frequency Model
*   Use model for Frequency Domain simulations
*======================================================================
.subckt LPS5010-152_freq port1 port2 PARAMS: Cpar=1.28pF Ind=1.5uH
X1 port1 port2 Model1A PARAMS:
+ R1=280
+ R2=0.072
+ C= {Cpar}
+ K1=0.00024
+ K2=0.35
+ K3= {Ind}
+ K4=0.027
+ K5=0.0000092
+ L=0
+ Is=0
+ a=0
+ L_Z0=0
+ L_EL=0
+ L_F0=0E6
+ PkZ=1926.36981
.ends LPS5010-152_freq

*======================================================================
* SPICE Model generated by Coilcraft
* Coilcraft Part Number : LPS5010-152
* Inductance = 1.5uH
*======================================================================
* Model Parameters:
*   Valid Frequency Range = 0.1MHz-150MHz
*   Ambient Temperature = 25 degC
*   Inductor Impedance Model
*   Use model for Time Domain simulations
*======================================================================
.subckt LPS5010-152_imp port1 port2 PARAMS: Cpar=1.12pF Ind=1.5uH
X1 port1 port2 Model1D PARAMS:
+ R1=280
+ R2=0.072
+ C= {Cpar}
+ K1=0.00024
+ K2=0.35
+ K3= {Ind}
+ K4=0.027
+ K5=0.0000092
+ L=0
+ Is=0
+ a=0
+ L_Z0=0
+ L_EL=0
+ L_F0=0E6
+ PkZ=1926.36981
.ends LPS5010-152_imp

*======================================================================
* SPICE Model generated by Coilcraft
* Coilcraft Part Number : LPS5010-222
* Inductance = 2.2uH
*======================================================================
* Model Parameters:
*   Valid Frequency Range = 0.1MHz-100MHz
*   Ambient Temperature = 25 degC
*   Inductor Frequency Model
*   Use model for Frequency Domain simulations
*======================================================================
.subckt LPS5010-222_freq port1 port2 PARAMS: Cpar=1.18pF Ind=2.2uH
X1 port1 port2 Model1A PARAMS:
+ R1=400
+ R2=0.1
+ C= {Cpar}
+ K1=0.0002
+ K2=0.45
+ K3= {Ind}
+ K4=0.051
+ K5=0.0000096
+ L=0
+ Is=0
+ a=0
+ L_Z0=0
+ L_EL=0
+ L_F0=0E6
+ PkZ=2206.11832
.ends LPS5010-222_freq

*======================================================================
* SPICE Model generated by Coilcraft
* Coilcraft Part Number : LPS5010-222
* Inductance = 2.2uH
*======================================================================
* Model Parameters:
*   Valid Frequency Range = 0.1MHz-100MHz
*   Ambient Temperature = 25 degC
*   Inductor Impedance Model
*   Use model for Time Domain simulations
*======================================================================
.subckt LPS5010-222_imp port1 port2 PARAMS: Cpar=0.99pF Ind=2.2uH
X1 port1 port2 Model1D PARAMS:
+ R1=400
+ R2=0.1
+ C= {Cpar}
+ K1=0.0002
+ K2=0.45
+ K3= {Ind}
+ K4=0.051
+ K5=0.0000096
+ L=0
+ Is=0
+ a=0
+ L_Z0=0
+ L_EL=0
+ L_F0=0E6
+ PkZ=2206.11832
.ends LPS5010-222_imp

*======================================================================
* SPICE Model generated by Coilcraft
* Coilcraft Part Number : LPS5010-332
* Inductance = 3.3uH
*======================================================================
* Model Parameters:
*   Valid Frequency Range = 0.1MHz-100MHz
*   Ambient Temperature = 25 degC
*   Inductor Frequency Model
*   Use model for Frequency Domain simulations
*======================================================================
.subckt LPS5010-332_freq port1 port2 PARAMS: Cpar=1.2pF Ind=3.3uH
X1 port1 port2 Model1A PARAMS:
+ R1=240
+ R2=0.125
+ C= {Cpar}
+ K1=0.00045
+ K2=0.82
+ K3= {Ind}
+ K4=0.09
+ K5=0.0000096
+ L=0
+ Is=0
+ a=0
+ L_Z0=0
+ L_EL=0
+ L_F0=0E6
+ PkZ=4232.2735
.ends LPS5010-332_freq

*======================================================================
* SPICE Model generated by Coilcraft
* Coilcraft Part Number : LPS5010-332
* Inductance = 3.3uH
*======================================================================
* Model Parameters:
*   Valid Frequency Range = 0.1MHz-100MHz
*   Ambient Temperature = 25 degC
*   Inductor Impedance Model
*   Use model for Time Domain simulations
*======================================================================
.subckt LPS5010-332_imp port1 port2 PARAMS: Cpar=0.98pF Ind=3.3uH
X1 port1 port2 Model1D PARAMS:
+ R1=240
+ R2=0.125
+ C= {Cpar}
+ K1=0.00045
+ K2=0.82
+ K3= {Ind}
+ K4=0.09
+ K5=0.0000096
+ L=0
+ Is=0
+ a=0
+ L_Z0=0
+ L_EL=0
+ L_F0=0E6
+ PkZ=4232.2735
.ends LPS5010-332_imp

*======================================================================
* SPICE Model generated by Coilcraft
* Coilcraft Part Number : LPS5010-472
* Inductance = 4.7uH
*======================================================================
* Model Parameters:
*   Valid Frequency Range = 0.1MHz-100MHz
*   Ambient Temperature = 25 degC
*   Inductor Frequency Model
*   Use model for Frequency Domain simulations
*======================================================================
.subckt LPS5010-472_freq port1 port2 PARAMS: Cpar=1.15pF Ind=4.7uH
X1 port1 port2 Model1A PARAMS:
+ R1=160
+ R2=0.175
+ C= {Cpar}
+ K1=0.00025
+ K2=0.97
+ K3= {Ind}
+ K4=0.11
+ K5=0.00000975
+ L=0
+ Is=0
+ a=0
+ L_Z0=0
+ L_EL=0
+ L_F0=0E6
+ PkZ=6020.45577
.ends LPS5010-472_freq

*======================================================================
* SPICE Model generated by Coilcraft
* Coilcraft Part Number : LPS5010-472
* Inductance = 4.7uH
*======================================================================
* Model Parameters:
*   Valid Frequency Range = 0.1MHz-100MHz
*   Ambient Temperature = 25 degC
*   Inductor Impedance Model
*   Use model for Time Domain simulations
*======================================================================
.subckt LPS5010-472_imp port1 port2 PARAMS: Cpar=0.97pF Ind=4.7uH
X1 port1 port2 Model1D PARAMS:
+ R1=160
+ R2=0.175
+ C= {Cpar}
+ K1=0.00025
+ K2=0.97
+ K3= {Ind}
+ K4=0.11
+ K5=0.00000975
+ L=0
+ Is=0
+ a=0
+ L_Z0=0
+ L_EL=0
+ L_F0=0E6
+ PkZ=6020.45577
.ends LPS5010-472_imp

*======================================================================
* SPICE Model generated by Coilcraft
* Coilcraft Part Number : LPS5010-562
* Inductance = 5.6uH
*======================================================================
* Model Parameters:
*   Valid Frequency Range = 0.1MHz-100MHz
*   Ambient Temperature = 25 degC
*   Inductor Frequency Model
*   Use model for Frequency Domain simulations
*======================================================================
.subckt LPS5010-562_freq port1 port2 PARAMS: Cpar=1.38pF Ind=5.6uH
X1 port1 port2 Model1A PARAMS:
+ R1=100
+ R2=0.24
+ C= {Cpar}
+ K1=0.00004
+ K2=1.25
+ K3= {Ind}
+ K4=0.13
+ K5=0.00000995
+ L=0
+ Is=0
+ a=0
+ L_Z0=0
+ L_EL=0
+ L_F0=0E6
+ PkZ=7660.92132
.ends LPS5010-562_freq

*======================================================================
* SPICE Model generated by Coilcraft
* Coilcraft Part Number : LPS5010-562
* Inductance = 5.6uH
*======================================================================
* Model Parameters:
*   Valid Frequency Range = 0.1MHz-100MHz
*   Ambient Temperature = 25 degC
*   Inductor Impedance Model
*   Use model for Time Domain simulations
*======================================================================
.subckt LPS5010-562_imp port1 port2 PARAMS: Cpar=1.18pF Ind=5.6uH
X1 port1 port2 Model1D PARAMS:
+ R1=100
+ R2=0.24
+ C= {Cpar}
+ K1=0.00004
+ K2=1.25
+ K3= {Ind}
+ K4=0.13
+ K5=0.00000995
+ L=0
+ Is=0
+ a=0
+ L_Z0=0
+ L_EL=0
+ L_F0=0E6
+ PkZ=7660.92132
.ends LPS5010-562_imp

*======================================================================
* SPICE Model generated by Coilcraft
* Coilcraft Part Number : LPS5010-682
* Inductance = 6.8uH
*======================================================================
* Model Parameters:
*   Valid Frequency Range = 0.1MHz-100MHz
*   Ambient Temperature = 25 degC
*   Inductor Frequency Model
*   Use model for Frequency Domain simulations
*======================================================================
.subckt LPS5010-682_freq port1 port2 PARAMS: Cpar=1.37pF Ind=6.8uH
X1 port1 port2 Model1A PARAMS:
+ R1=60
+ R2=0.255
+ C= {Cpar}
+ K1=0.0005
+ K2=1.38
+ K3= {Ind}
+ K4=0.17
+ K5=0.00000966
+ L=0
+ Is=0
+ a=0
+ L_Z0=0
+ L_EL=0
+ L_F0=0E6
+ PkZ=8975.71502
.ends LPS5010-682_freq

*======================================================================
* SPICE Model generated by Coilcraft
* Coilcraft Part Number : LPS5010-682
* Inductance = 6.8uH
*======================================================================
* Model Parameters:
*   Valid Frequency Range = 0.1MHz-100MHz
*   Ambient Temperature = 25 degC
*   Inductor Impedance Model
*   Use model for Time Domain simulations
*======================================================================
.subckt LPS5010-682_imp port1 port2 PARAMS: Cpar=1.16pF Ind=6.8uH
X1 port1 port2 Model1D PARAMS:
+ R1=60
+ R2=0.255
+ C= {Cpar}
+ K1=0.0005
+ K2=1.38
+ K3= {Ind}
+ K4=0.17
+ K5=0.00000966
+ L=0
+ Is=0
+ a=0
+ L_Z0=0
+ L_EL=0
+ L_F0=0E6
+ PkZ=8975.71502
.ends LPS5010-682_imp

*======================================================================
* SPICE Model generated by Coilcraft
* Coilcraft Part Number : LPS5010-103
* Inductance = 10uH
*======================================================================
* Model Parameters:
*   Valid Frequency Range = 0.1MHz-80MHz
*   Ambient Temperature = 25 degC
*   Inductor Frequency Model
*   Use model for Frequency Domain simulations
*======================================================================
.subckt LPS5010-103_freq port1 port2 PARAMS: Cpar=1.31pF Ind=10uH
X1 port1 port2 Model1A PARAMS:
+ R1=20
+ R2=0.35
+ C= {Cpar}
+ K1=0.0008
+ K2=1.75
+ K3= {Ind}
+ K4=0.26
+ K5=0.0000096
+ L=0
+ Is=0
+ a=0
+ L_Z0=0
+ L_EL=0
+ L_F0=0E6
+ PkZ=11554.8278
.ends LPS5010-103_freq

*======================================================================
* SPICE Model generated by Coilcraft
* Coilcraft Part Number : LPS5010-103
* Inductance = 10uH
*======================================================================
* Model Parameters:
*   Valid Frequency Range = 0.1MHz-80MHz
*   Ambient Temperature = 25 degC
*   Inductor Impedance Model
*   Use model for Time Domain simulations
*======================================================================
.subckt LPS5010-103_imp port1 port2 PARAMS: Cpar=1.10pF Ind=10uH
X1 port1 port2 Model1D PARAMS:
+ R1=20
+ R2=0.35
+ C= {Cpar}
+ K1=0.0008
+ K2=1.75
+ K3= {Ind}
+ K4=0.26
+ K5=0.0000096
+ L=0
+ Is=0
+ a=0
+ L_Z0=0
+ L_EL=0
+ L_F0=0E6
+ PkZ=11554.8278
.ends LPS5010-103_imp

*======================================================================
* SPICE Model generated by Coilcraft
* Coilcraft Part Number : LPS5010-153
* Inductance = 15uH
*======================================================================
* Model Parameters:
*   Valid Frequency Range = 0.1MHz-80MHz
*   Ambient Temperature = 25 degC
*   Inductor Frequency Model
*   Use model for Frequency Domain simulations
*======================================================================
.subckt LPS5010-153_freq port1 port2 PARAMS: Cpar=1.47pF Ind=15uH
X1 port1 port2 Model1A PARAMS:
+ R1=45
+ R2=0.5
+ C= {Cpar}
+ K1=0.0002
+ K2=3.2
+ K3= {Ind}
+ K4=0.35
+ K5=0.0000099
+ L=0
+ Is=0
+ a=0
+ L_Z0=0
+ L_EL=0
+ L_F0=0E6
+ PkZ=17544.6032
.ends LPS5010-153_freq

*======================================================================
* SPICE Model generated by Coilcraft
* Coilcraft Part Number : LPS5010-153
* Inductance = 15uH
*======================================================================
* Model Parameters:
*   Valid Frequency Range = 0.1MHz-80MHz
*   Ambient Temperature = 25 degC
*   Inductor Impedance Model
*   Use model for Time Domain simulations
*======================================================================
.subckt LPS5010-153_imp port1 port2 PARAMS: Cpar=1.27pF Ind=15uH
X1 port1 port2 Model1D PARAMS:
+ R1=45
+ R2=0.5
+ C= {Cpar}
+ K1=0.0002
+ K2=3.2
+ K3= {Ind}
+ K4=0.35
+ K5=0.0000099
+ L=0
+ Is=0
+ a=0
+ L_Z0=0
+ L_EL=0
+ L_F0=0E6
+ PkZ=17544.6032
.ends LPS5010-153_imp

*======================================================================
* SPICE Model generated by Coilcraft
* Coilcraft Part Number : LPS5010-223
* Inductance = 22uH
*======================================================================
* Model Parameters:
*   Valid Frequency Range = 0.1MHz-60MHz
*   Ambient Temperature = 25 degC
*   Inductor Frequency Model
*   Use model for Frequency Domain simulations
*======================================================================
.subckt LPS5010-223_freq port1 port2 PARAMS: Cpar=1.63pF Ind=22uH
X1 port1 port2 Model1A PARAMS:
+ R1=40
+ R2=0.67
+ C= {Cpar}
+ K1=0.0001
+ K2=4.25
+ K3= {Ind}
+ K4=0.44
+ K5=0.00000992
+ L=0
+ Is=0
+ a=0
+ L_Z0=0
+ L_EL=0
+ L_F0=0E6
+ PkZ=20968.0647
.ends LPS5010-223_freq

*======================================================================
* SPICE Model generated by Coilcraft
* Coilcraft Part Number : LPS5010-223
* Inductance = 22uH
*======================================================================
* Model Parameters:
*   Valid Frequency Range = 0.1MHz-60MHz
*   Ambient Temperature = 25 degC
*   Inductor Impedance Model
*   Use model for Time Domain simulations
*======================================================================
.subckt LPS5010-223_imp port1 port2 PARAMS: Cpar=1.45pF Ind=22uH
X1 port1 port2 Model1D PARAMS:
+ R1=40
+ R2=0.67
+ C= {Cpar}
+ K1=0.0001
+ K2=4.25
+ K3= {Ind}
+ K4=0.44
+ K5=0.00000992
+ L=0
+ Is=0
+ a=0
+ L_Z0=0
+ L_EL=0
+ L_F0=0E6
+ PkZ=20968.0647
.ends LPS5010-223_imp

*======================================================================
* SPICE Model generated by Coilcraft
* Coilcraft Part Number : LPS5010-333
* Inductance = 33uH
*======================================================================
* Model Parameters:
*   Valid Frequency Range = 0.1MHz-50MHz
*   Ambient Temperature = 25 degC
*   Inductor Frequency Model
*   Use model for Frequency Domain simulations
*======================================================================
.subckt LPS5010-333_freq port1 port2 PARAMS: Cpar=1.54pF Ind=33uH
X1 port1 port2 Model1A PARAMS:
+ R1=25
+ R2=1.05
+ C= {Cpar}
+ K1=0.00002
+ K2=6
+ K3= {Ind}
+ K4=0.61
+ K5=0.00000994
+ L=0
+ Is=0
+ a=0
+ L_Z0=0
+ L_EL=0
+ L_F0=0E6
+ PkZ=28043.8704
.ends LPS5010-333_freq

*======================================================================
* SPICE Model generated by Coilcraft
* Coilcraft Part Number : LPS5010-333
* Inductance = 33uH
*======================================================================
* Model Parameters:
*   Valid Frequency Range = 0.1MHz-50MHz
*   Ambient Temperature = 25 degC
*   Inductor Impedance Model
*   Use model for Time Domain simulations
*======================================================================
.subckt LPS5010-333_imp port1 port2 PARAMS: Cpar=1.39pF Ind=33uH
X1 port1 port2 Model1D PARAMS:
+ R1=25
+ R2=1.05
+ C= {Cpar}
+ K1=0.00002
+ K2=6
+ K3= {Ind}
+ K4=0.61
+ K5=0.00000994
+ L=0
+ Is=0
+ a=0
+ L_Z0=0
+ L_EL=0
+ L_F0=0E6
+ PkZ=28043.8704
.ends LPS5010-333_imp

*======================================================================
* SPICE Model generated by Coilcraft
* Coilcraft Part Number : LPS5010-473
* Inductance = 47uH
*======================================================================
* Model Parameters:
*   Valid Frequency Range = 0.1MHz-30MHz
*   Ambient Temperature = 25 degC
*   Inductor Frequency Model
*   Use model for Frequency Domain simulations
*======================================================================
.subckt LPS5010-473_freq port1 port2 PARAMS: Cpar=1.99pF Ind=47uH
X1 port1 port2 Model1A PARAMS:
+ R1=70
+ R2=1.4
+ C= {Cpar}
+ K1=0.00002
+ K2=9
+ K3= {Ind}
+ K4=0.66
+ K5=0.00000994
+ L=0
+ Is=0
+ a=0
+ L_Z0=0
+ L_EL=0
+ L_F0=0E6
+ PkZ=33244.352
.ends LPS5010-473_freq

*======================================================================
* SPICE Model generated by Coilcraft
* Coilcraft Part Number : LPS5010-473
* Inductance = 47uH
*======================================================================
* Model Parameters:
*   Valid Frequency Range = 0.1MHz-30MHz
*   Ambient Temperature = 25 degC
*   Inductor Impedance Model
*   Use model for Time Domain simulations
*======================================================================
.subckt LPS5010-473_imp port1 port2 PARAMS: Cpar=1.85pF Ind=47uH
X1 port1 port2 Model1D PARAMS:
+ R1=70
+ R2=1.4
+ C= {Cpar}
+ K1=0.00002
+ K2=9
+ K3= {Ind}
+ K4=0.66
+ K5=0.00000994
+ L=0
+ Is=0
+ a=0
+ L_Z0=0
+ L_EL=0
+ L_F0=0E6
+ PkZ=33244.352
.ends LPS5010-473_imp

*======================================================================
* SPICE Model generated by Coilcraft
* Coilcraft Part Number : LPS5010-683
* Inductance = 68uH
*======================================================================
* Model Parameters:
*   Valid Frequency Range = 0.1MHz-20MHz
*   Ambient Temperature = 25 degC
*   Inductor Frequency Model
*   Use model for Frequency Domain simulations
*======================================================================
.subckt LPS5010-683_freq port1 port2 PARAMS: Cpar=1.49pF Ind=68uH
X1 port1 port2 Model1A PARAMS:
+ R1=280
+ R2=2
+ C= {Cpar}
+ K1=0.00001
+ K2=13
+ K3= {Ind}
+ K4=0.69
+ K5=0.00000993
+ L=0
+ Is=0
+ a=0
+ L_Z0=0
+ L_EL=0
+ L_F0=0E6
+ PkZ=39140.4343
.ends LPS5010-683_freq

*======================================================================
* SPICE Model generated by Coilcraft
* Coilcraft Part Number : LPS5010-683
* Inductance = 68uH
*======================================================================
* Model Parameters:
*   Valid Frequency Range = 0.1MHz-20MHz
*   Ambient Temperature = 25 degC
*   Inductor Impedance Model
*   Use model for Time Domain simulations
*======================================================================
.subckt LPS5010-683_imp port1 port2 PARAMS: Cpar=1.41pF Ind=68uH
X1 port1 port2 Model1D PARAMS:
+ R1=280
+ R2=2
+ C= {Cpar}
+ K1=0.00001
+ K2=13
+ K3= {Ind}
+ K4=0.69
+ K5=0.00000993
+ L=0
+ Is=0
+ a=0
+ L_Z0=0
+ L_EL=0
+ L_F0=0E6
+ PkZ=39140.4343
.ends LPS5010-683_imp

*======================================================================
* SPICE Model generated by Coilcraft
* Coilcraft Part Number : LPS5010-104
* Inductance = 100uH
*======================================================================
* Model Parameters:
*   Valid Frequency Range = 0.1MHz-20MHz
*   Ambient Temperature = 25 degC
*   Inductor Frequency Model
*   Use model for Frequency Domain simulations
*======================================================================
.subckt LPS5010-104_freq port1 port2 PARAMS: Cpar=1.95pF Ind=100uH
X1 port1 port2 Model1A PARAMS:
+ R1=200
+ R2=3.1
+ C= {Cpar}
+ K1=0.00008
+ K2=24
+ K3= {Ind}
+ K4=0.7
+ K5=0.00001
+ L=0
+ Is=0
+ a=0
+ L_Z0=0
+ L_EL=0
+ L_F0=0E6
+ PkZ=61447.1603
.ends LPS5010-104_freq

*======================================================================
* SPICE Model generated by Coilcraft
* Coilcraft Part Number : LPS5010-104
* Inductance = 100uH
*======================================================================
* Model Parameters:
*   Valid Frequency Range = 0.1MHz-20MHz
*   Ambient Temperature = 25 degC
*   Inductor Impedance Model
*   Use model for Time Domain simulations
*======================================================================
.subckt LPS5010-104_imp port1 port2 PARAMS: Cpar=1.89pF Ind=100uH
X1 port1 port2 Model1D PARAMS:
+ R1=200
+ R2=3.1
+ C= {Cpar}
+ K1=0.00008
+ K2=24
+ K3= {Ind}
+ K4=0.7
+ K5=0.00001
+ L=0
+ Is=0
+ a=0
+ L_Z0=0
+ L_EL=0
+ L_F0=0E6
+ PkZ=61447.1603
.ends LPS5010-104_imp

*======================================================================
* SPICE Model generated by Coilcraft
* Coilcraft Part Number : LPS5010-124
* Inductance = 120uH
*======================================================================
* Model Parameters:
*   Valid Frequency Range = 0.1MHz-12MHz
*   Ambient Temperature = 25 degC
*   Inductor Frequency Model
*   Use model for Frequency Domain simulations
*======================================================================
.subckt LPS5010-124_freq port1 port2 PARAMS: Cpar=2.12pF Ind=120uH
X1 port1 port2 Model1A PARAMS:
+ R1=350
+ R2=3.5
+ C= {Cpar}
+ K1=0.00038
+ K2=28
+ K3= {Ind}
+ K4=0.72
+ K5=0.00001
+ L=0
+ Is=0
+ a=0
+ L_Z0=0
+ L_EL=0
+ L_F0=0E6
+ PkZ=56832.2704
.ends LPS5010-124_freq

*======================================================================
* SPICE Model generated by Coilcraft
* Coilcraft Part Number : LPS5010-124
* Inductance = 120uH
*======================================================================
* Model Parameters:
*   Valid Frequency Range = 0.1MHz-12MHz
*   Ambient Temperature = 25 degC
*   Inductor Impedance Model
*   Use model for Time Domain simulations
*======================================================================
.subckt LPS5010-124_imp port1 port2 PARAMS: Cpar=2.06pF Ind=120uH
X1 port1 port2 Model1D PARAMS:
+ R1=350
+ R2=3.5
+ C= {Cpar}
+ K1=0.00038
+ K2=28
+ K3= {Ind}
+ K4=0.72
+ K5=0.00001
+ L=0
+ Is=0
+ a=0
+ L_Z0=0
+ L_EL=0
+ L_F0=0E6
+ PkZ=56832.2704
.ends LPS5010-124_imp

*======================================================================
* SPICE Model generated by Coilcraft
* Coilcraft Part Number : LPS5010-154
* Inductance = 150uH
*======================================================================
* Model Parameters:
*   Valid Frequency Range = 0.1MHz-10MHz
*   Ambient Temperature = 25 degC
*   Inductor Frequency Model
*   Use model for Frequency Domain simulations
*======================================================================
.subckt LPS5010-154_freq port1 port2 PARAMS: Cpar=2.31pF Ind=150uH
X1 port1 port2 Model1A PARAMS:
+ R1=440
+ R2=4.25
+ C= {Cpar}
+ K1=0.00028
+ K2=36
+ K3= {Ind}
+ K4=0.75
+ K5=0.0000101
+ L=0
+ Is=0
+ a=0
+ L_Z0=0
+ L_EL=0
+ L_F0=0E6
+ PkZ=61078.9336
.ends LPS5010-154_freq

*======================================================================
* SPICE Model generated by Coilcraft
* Coilcraft Part Number : LPS5010-154
* Inductance = 150uH
*======================================================================
* Model Parameters:
*   Valid Frequency Range = 0.1MHz-10MHz
*   Ambient Temperature = 25 degC
*   Inductor Impedance Model
*   Use model for Time Domain simulations
*======================================================================
.subckt LPS5010-154_imp port1 port2 PARAMS: Cpar=2.26pF Ind=150uH
X1 port1 port2 Model1D PARAMS:
+ R1=440
+ R2=4.25
+ C= {Cpar}
+ K1=0.00028
+ K2=36
+ K3= {Ind}
+ K4=0.75
+ K5=0.0000101
+ L=0
+ Is=0
+ a=0
+ L_Z0=0
+ L_EL=0
+ L_F0=0E6
+ PkZ=61078.9336
.ends LPS5010-154_imp

*======================================================================
* SPICE Model generated by Coilcraft
* Coilcraft Part Number : LPS5010-224
* Inductance = 220uH
*======================================================================
* Model Parameters:
*   Valid Frequency Range = 0.1MHz-10MHz
*   Ambient Temperature = 25 degC
*   Inductor Frequency Model
*   Use model for Frequency Domain simulations
*======================================================================
.subckt LPS5010-224_freq port1 port2 PARAMS: Cpar=2.19pF Ind=220uH
X1 port1 port2 Model1A PARAMS:
+ R1=450
+ R2=6.25
+ C= {Cpar}
+ K1=0.00018
+ K2=42
+ K3= {Ind}
+ K4=0.8
+ K5=0.0000102
+ L=0
+ Is=0
+ a=0
+ L_Z0=0
+ L_EL=0
+ L_F0=0E6
+ PkZ=74882.6102
.ends LPS5010-224_freq

*======================================================================
* SPICE Model generated by Coilcraft
* Coilcraft Part Number : LPS5010-224
* Inductance = 220uH
*======================================================================
* Model Parameters:
*   Valid Frequency Range = 0.1MHz-10MHz
*   Ambient Temperature = 25 degC
*   Inductor Impedance Model
*   Use model for Time Domain simulations
*======================================================================
.subckt LPS5010-224_imp port1 port2 PARAMS: Cpar=2.16pF Ind=220uH
X1 port1 port2 Model1D PARAMS:
+ R1=450
+ R2=6.25
+ C= {Cpar}
+ K1=0.00018
+ K2=42
+ K3= {Ind}
+ K4=0.8
+ K5=0.0000102
+ L=0
+ Is=0
+ a=0
+ L_Z0=0
+ L_EL=0
+ L_F0=0E6
+ PkZ=74882.6102
.ends LPS5010-224_imp

*======================================================================
* SPICE Model generated by Coilcraft
* Coilcraft Part Number : LPS5010-334
* Inductance = 330uH
*======================================================================
* Model Parameters:
*   Valid Frequency Range = 0.1MHz-10MHz
*   Ambient Temperature = 25 degC
*   Inductor Frequency Model
*   Use model for Frequency Domain simulations
*======================================================================
.subckt LPS5010-334_freq port1 port2 PARAMS: Cpar=2.55pF Ind=330uH
X1 port1 port2 Model1A PARAMS:
+ R1=380
+ R2=8.6
+ C= {Cpar}
+ K1=0.00074
+ K2=82
+ K3= {Ind}
+ K4=0.96
+ K5=0.0000109
+ L=0
+ Is=0
+ a=0
+ L_Z0=0
+ L_EL=0
+ L_F0=0E6
+ PkZ=122355.693
.ends LPS5010-334_freq

*======================================================================
* SPICE Model generated by Coilcraft
* Coilcraft Part Number : LPS5010-334
* Inductance = 330uH
*======================================================================
* Model Parameters:
*   Valid Frequency Range = 0.1MHz-10MHz
*   Ambient Temperature = 25 degC
*   Inductor Impedance Model
*   Use model for Time Domain simulations
*======================================================================
.subckt LPS5010-334_imp port1 port2 PARAMS: Cpar=2.52pF Ind=330uH
X1 port1 port2 Model1D PARAMS:
+ R1=380
+ R2=8.6
+ C= {Cpar}
+ K1=0.00074
+ K2=82
+ K3= {Ind}
+ K4=0.96
+ K5=0.0000109
+ L=0
+ Is=0
+ a=0
+ L_Z0=0
+ L_EL=0
+ L_F0=0E6
+ PkZ=122355.693
.ends LPS5010-334_imp

*======================================================================
* SPICE Model generated by Coilcraft
* Coilcraft Part Number : LPS5010-474
* Inductance = 470uH
*======================================================================
* Model Parameters:
*   Valid Frequency Range = 0.1MHz-7MHz
*   Ambient Temperature = 25 degC
*   Inductor Frequency Model
*   Use model for Frequency Domain simulations
*======================================================================
.subckt LPS5010-474_freq port1 port2 PARAMS: Cpar=2.42pF Ind=470uH
X1 port1 port2 Model1A PARAMS:
+ R1=440
+ R2=12.7
+ C= {Cpar}
+ K1=0.00054
+ K2=120
+ K3= {Ind}
+ K4=1.2
+ K5=0.0000116
+ L=0
+ Is=0
+ a=0
+ L_Z0=0
+ L_EL=0
+ L_F0=0E6
+ PkZ=163426.978
.ends LPS5010-474_freq

*======================================================================
* SPICE Model generated by Coilcraft
* Coilcraft Part Number : LPS5010-474
* Inductance = 470uH
*======================================================================
* Model Parameters:
*   Valid Frequency Range = 0.1MHz-7MHz
*   Ambient Temperature = 25 degC
*   Inductor Impedance Model
*   Use model for Time Domain simulations
*======================================================================
.subckt LPS5010-474_imp port1 port2 PARAMS: Cpar=2.40pF Ind=470uH
X1 port1 port2 Model1D PARAMS:
+ R1=440
+ R2=12.7
+ C= {Cpar}
+ K1=0.00054
+ K2=120
+ K3= {Ind}
+ K4=1.2
+ K5=0.0000116
+ L=0
+ Is=0
+ a=0
+ L_Z0=0
+ L_EL=0
+ L_F0=0E6
+ PkZ=163426.978
.ends LPS5010-474_imp

*======================================================================
* SPICE Model generated by Coilcraft
* Coilcraft Part Number : LPS5010-564
* Inductance = 560uH
*======================================================================
* Model Parameters:
*   Valid Frequency Range = 0.1MHz-6MHz
*   Ambient Temperature = 25 degC
*   Inductor Frequency Model
*   Use model for Frequency Domain simulations
*======================================================================
.subckt LPS5010-564_freq port1 port2 PARAMS: Cpar=2.32pF Ind=560uH
X1 port1 port2 Model1A PARAMS:
+ R1=350
+ R2=15.7
+ C= {Cpar}
+ K1=0.0004
+ K2=200
+ K3= {Ind}
+ K4=1.8
+ K5=0.0000116
+ L=0
+ Is=0
+ a=0
+ L_Z0=0
+ L_EL=0
+ L_F0=0E6
+ PkZ=260200.591
.ends LPS5010-564_freq

*======================================================================
* SPICE Model generated by Coilcraft
* Coilcraft Part Number : LPS5010-564
* Inductance = 560uH
*======================================================================
* Model Parameters:
*   Valid Frequency Range = 0.1MHz-6MHz
*   Ambient Temperature = 25 degC
*   Inductor Impedance Model
*   Use model for Time Domain simulations
*======================================================================
.subckt LPS5010-564_imp port1 port2 PARAMS: Cpar=2.29pF Ind=560uH
X1 port1 port2 Model1D PARAMS:
+ R1=350
+ R2=15.7
+ C= {Cpar}
+ K1=0.0004
+ K2=200
+ K3= {Ind}
+ K4=1.8
+ K5=0.0000116
+ L=0
+ Is=0
+ a=0
+ L_Z0=0
+ L_EL=0
+ L_F0=0E6
+ PkZ=260200.591
.ends LPS5010-564_imp

*======================================================================
* SPICE Model generated by Coilcraft
* Coilcraft Part Number : LPS5010-684