*======================================================================
* SPICE Model generated by Coilcraft
* Coilcraft Part Number : LPS5030-901
* Inductance = 0.9uH
*======================================================================
* Model Parameters:
*   Valid Frequency Range = 0.1MHz-200MHz
*   Ambient Temperature = 25 degC
*   Inductor Frequency Model
*   Use model for Frequency Domain simulations
*======================================================================
.subckt LPS5030-901_freq port1 port2 PARAMS: Cpar=1.588pF Ind=0.9uH
X1 port1 port2 Model1A PARAMS:
+ R1=200
+ R2=0.04
+ C= {Cpar}
+ K1=0.00000773
+ K2=0.121
+ K3= {Ind}
+ K4=0.012
+ K5=0.0000128
+ L=0
+ Is=0
+ a=0
+ L_Z0=0
+ L_EL=0
+ L_F0=0E6
+ PkZ=937.915545
.ends LPS5030-901_freq

*======================================================================
* SPICE Model generated by Coilcraft
* Coilcraft Part Number : LPS5030-901
* Inductance = 0.9uH
*======================================================================
* Model Parameters:
*   Valid Frequency Range = 0.1MHz-200MHz
*   Ambient Temperature = 25 degC
*   Inductor Impedance Model
*   Use model for Time Domain simulations
*======================================================================
.subckt LPS5030-901_imp port1 port2 PARAMS: Cpar=1.43pF Ind=0.9uH
X1 port1 port2 Model1D PARAMS:
+ R1=200
+ R2=0.04
+ C= {Cpar}
+ K1=0.00000773
+ K2=0.121
+ K3= {Ind}
+ K4=0.012
+ K5=0.0000128
+ L=0
+ Is=0
+ a=0
+ L_Z0=0
+ L_EL=0
+ L_F0=0E6
+ PkZ=937.915545
.ends LPS5030-901_imp

*======================================================================
* SPICE Model generated by Coilcraft
* Coilcraft Part Number : LPS5030-122
* Inductance = 1.2uH
*======================================================================
* Model Parameters:
*   Valid Frequency Range = 0.1MHz-200MHz
*   Ambient Temperature = 25 degC
*   Inductor Frequency Model
*   Use model for Frequency Domain simulations
*======================================================================
.subckt LPS5030-122_freq port1 port2 PARAMS: Cpar=1.67pF Ind=1.2uH
X1 port1 port2 Model1A PARAMS:
+ R1=220
+ R2=0.043
+ C= {Cpar}
+ K1=0.00002
+ K2=0.17
+ K3= {Ind}
+ K4=0.001
+ K5=10
+ L=0
+ Is=0
+ a=0
+ L_Z0=0
+ L_EL=0
+ L_F0=0E6
+ PkZ=1179.72497
.ends LPS5030-122_freq

*======================================================================
* SPICE Model generated by Coilcraft
* Coilcraft Part Number : LPS5030-122
* Inductance = 1.2uH
*======================================================================
* Model Parameters:
*   Valid Frequency Range = 0.1MHz-200MHz
*   Ambient Temperature = 25 degC
*   Inductor Impedance Model
*   Use model for Time Domain simulations
*======================================================================
.subckt LPS5030-122_imp port1 port2 PARAMS: Cpar=1.64pF Ind=1.2uH
X1 port1 port2 Model1D PARAMS:
+ R1=220
+ R2=0.043
+ C= {Cpar}
+ K1=0.00002
+ K2=0.17
+ K3= {Ind}
+ K4=0.001
+ K5=10
+ L=0
+ Is=0
+ a=0
+ L_Z0=0
+ L_EL=0
+ L_F0=0E6
+ PkZ=1179.72497
.ends LPS5030-122_imp

*======================================================================
* SPICE Model generated by Coilcraft
* Coilcraft Part Number : LPS5030-172
* Inductance = 1.7uH
*======================================================================
* Model Parameters:
*   Valid Frequency Range = 0.1MHz-200MHz
*   Ambient Temperature = 25 degC
*   Inductor Frequency Model
*   Use model for Frequency Domain simulations
*======================================================================
.subckt LPS5030-172_freq port1 port2 PARAMS: Cpar=1.371pF Ind=1.7uH
X1 port1 port2 Model1A PARAMS:
+ R1=226.8
+ R2=0.051
+ C= {Cpar}
+ K1=0.00272
+ K2=0.243
+ K3= {Ind}
+ K4=0.005
+ K5=0.0000952
+ L=0
+ Is=0
+ a=0
+ L_Z0=0
+ L_EL=0
+ L_F0=0E6
+ PkZ=1653.27632
.ends LPS5030-172_freq

*======================================================================
* SPICE Model generated by Coilcraft
* Coilcraft Part Number : LPS5030-172
* Inductance = 1.7uH
*======================================================================
* Model Parameters:
*   Valid Frequency Range = 0.1MHz-200MHz
*   Ambient Temperature = 25 degC
*   Inductor Impedance Model
*   Use model for Time Domain simulations
*======================================================================
.subckt LPS5030-172_imp port1 port2 PARAMS: Cpar=1.33pF Ind=1.7uH
X1 port1 port2 Model1D PARAMS:
+ R1=226.8
+ R2=0.051
+ C= {Cpar}
+ K1=0.00272
+ K2=0.243
+ K3= {Ind}
+ K4=0.005
+ K5=0.0000952
+ L=0
+ Is=0
+ a=0
+ L_Z0=0
+ L_EL=0
+ L_F0=0E6
+ PkZ=1653.27632
.ends LPS5030-172_imp

*======================================================================
* SPICE Model generated by Coilcraft
* Coilcraft Part Number : LPS5030-222
* Inductance = 2.2uH
*======================================================================
* Model Parameters:
*   Valid Frequency Range = 0.1MHz-200MHz
*   Ambient Temperature = 25 degC
*   Inductor Frequency Model
*   Use model for Frequency Domain simulations
*======================================================================
.subckt LPS5030-222_freq port1 port2 PARAMS: Cpar=1.512pF Ind=2.2uH
X1 port1 port2 Model1A PARAMS:
+ R1=215.9
+ R2=0.057
+ C= {Cpar}
+ K1=0.00272
+ K2=0.377
+ K3= {Ind}
+ K4=0.009
+ K5=2
+ L=0
+ Is=0
+ a=0
+ L_Z0=0
+ L_EL=0
+ L_F0=0E6
+ PkZ=2202.86091
.ends LPS5030-222_freq

*======================================================================
* SPICE Model generated by Coilcraft
* Coilcraft Part Number : LPS5030-222
* Inductance = 2.2uH
*======================================================================
* Model Parameters:
*   Valid Frequency Range = 0.1MHz-200MHz
*   Ambient Temperature = 25 degC
*   Inductor Impedance Model
*   Use model for Time Domain simulations
*======================================================================
.subckt LPS5030-222_imp port1 port2 PARAMS: Cpar=1.39pF Ind=2.2uH
X1 port1 port2 Model1D PARAMS:
+ R1=215.9
+ R2=0.057
+ C= {Cpar}
+ K1=0.00272
+ K2=0.377
+ K3= {Ind}
+ K4=0.009
+ K5=2
+ L=0
+ Is=0
+ a=0
+ L_Z0=0
+ L_EL=0
+ L_F0=0E6
+ PkZ=2202.86091
.ends LPS5030-222_imp

*======================================================================
* SPICE Model generated by Coilcraft
* Coilcraft Part Number : LPS5030-332
* Inductance = 3.3uH
*======================================================================
* Model Parameters:
*   Valid Frequency Range = 0.1MHz-200MHz
*   Ambient Temperature = 25 degC
*   Inductor Frequency Model
*   Use model for Frequency Domain simulations
*======================================================================
.subckt LPS5030-332_freq port1 port2 PARAMS: Cpar=1.4pF Ind=3.3uH
X1 port1 port2 Model1A PARAMS:
+ R1=205.7
+ R2=0.066
+ C= {Cpar}
+ K1=0.00000272
+ K2=0.505
+ K3= {Ind}
+ K4=0.018
+ K5=0.3
+ L=0
+ Is=0
+ a=0
+ L_Z0=0
+ L_EL=0
+ L_F0=0E6
+ PkZ=3133.01733
.ends LPS5030-332_freq

*======================================================================
* SPICE Model generated by Coilcraft
* Coilcraft Part Number : LPS5030-332
* Inductance = 3.3uH
*======================================================================
* Model Parameters:
*   Valid Frequency Range = 0.1MHz-200MHz
*   Ambient Temperature = 25 degC
*   Inductor Impedance Model
*   Use model for Time Domain simulations
*======================================================================
.subckt LPS5030-332_imp port1 port2 PARAMS: Cpar=1.27pF Ind=3.3uH
X1 port1 port2 Model1D PARAMS:
+ R1=205.7
+ R2=0.066
+ C= {Cpar}
+ K1=0.00000272
+ K2=0.505
+ K3= {Ind}
+ K4=0.018
+ K5=0.3
+ L=0
+ Is=0
+ a=0
+ L_Z0=0
+ L_EL=0
+ L_F0=0E6
+ PkZ=3133.01733
.ends LPS5030-332_imp

*======================================================================
* SPICE Model generated by Coilcraft
* Coilcraft Part Number : LPS5030-472
* Inductance = 4.7uH
*======================================================================
* Model Parameters:
*   Valid Frequency Range = 0.1MHz-200MHz
*   Ambient Temperature = 25 degC
*   Inductor Frequency Model
*   Use model for Frequency Domain simulations
*======================================================================
.subckt LPS5030-472_freq port1 port2 PARAMS: Cpar=2.4pF Ind=4.7uH
X1 port1 port2 Model1A PARAMS:
+ R1=103.9
+ R2=0.083
+ C= {Cpar}
+ K1=0.00102
+ K2=1.051
+ K3= {Ind}
+ K4=0.05
+ K5=0.02
+ L=0
+ Is=0
+ a=0
+ L_Z0=0
+ L_EL=0
+ L_F0=0E6
+ PkZ=5023.40974
.ends LPS5030-472_freq

*======================================================================
* SPICE Model generated by Coilcraft
* Coilcraft Part Number : LPS5030-472
* Inductance = 4.7uH
*======================================================================
* Model Parameters:
*   Valid Frequency Range = 0.1MHz-200MHz
*   Ambient Temperature = 25 degC
*   Inductor Impedance Model
*   Use model for Time Domain simulations
*======================================================================
.subckt LPS5030-472_imp port1 port2 PARAMS: Cpar=2.05pF Ind=4.7uH
X1 port1 port2 Model1D PARAMS:
+ R1=103.9
+ R2=0.083
+ C= {Cpar}
+ K1=0.00102
+ K2=1.051
+ K3= {Ind}
+ K4=0.05
+ K5=0.02
+ L=0
+ Is=0
+ a=0
+ L_Z0=0
+ L_EL=0
+ L_F0=0E6
+ PkZ=5023.40974
.ends LPS5030-472_imp

*======================================================================
* SPICE Model generated by Coilcraft
* Coilcraft Part Number : LPS5030-562
* Inductance = 5.6uH
*======================================================================
* Model Parameters:
*   Valid Frequency Range = 0.1MHz-200MHz
*   Ambient Temperature = 25 degC
*   Inductor Frequency Model
*   Use model for Frequency Domain simulations
*======================================================================
.subckt LPS5030-562_freq port1 port2 PARAMS: Cpar=2.767pF Ind=5.6uH
X1 port1 port2 Model1A PARAMS:
+ R1=85.462
+ R2=0.089
+ C= {Cpar}
+ K1=0.000384
+ K2=1.478
+ K3= {Ind}
+ K4=0.05
+ K5=0.02
+ L=0
+ Is=0
+ a=0
+ L_Z0=0
+ L_EL=0
+ L_F0=0E6
+ PkZ=6564.06548
.ends LPS5030-562_freq

*======================================================================
* SPICE Model generated by Coilcraft
* Coilcraft Part Number : LPS5030-562
* Inductance = 5.6uH
*======================================================================
* Model Parameters:
*   Valid Frequency Range = 0.1MHz-200MHz
*   Ambient Temperature = 25 degC
*   Inductor Impedance Model
*   Use model for Time Domain simulations
*======================================================================
.subckt LPS5030-562_imp port1 port2 PARAMS: Cpar=2.43pF Ind=5.6uH
X1 port1 port2 Model1D PARAMS:
+ R1=85.462
+ R2=0.089
+ C= {Cpar}
+ K1=0.000384
+ K2=1.478
+ K3= {Ind}
+ K4=0.05
+ K5=0.02
+ L=0
+ Is=0
+ a=0
+ L_Z0=0
+ L_EL=0
+ L_F0=0E6
+ PkZ=6564.06548
.ends LPS5030-562_imp

*======================================================================
* SPICE Model generated by Coilcraft
* Coilcraft Part Number : LPS5030-682
* Inductance = 6.8uH
*======================================================================
* Model Parameters:
*   Valid Frequency Range = 0.1MHz-200MHz
*   Ambient Temperature = 25 degC
*   Inductor Frequency Model
*   Use model for Frequency Domain simulations
*======================================================================
.subckt LPS5030-682_freq port1 port2 PARAMS: Cpar=2.905pF Ind=6.8uH
X1 port1 port2 Model1A PARAMS:
+ R1=77.517
+ R2=0.099
+ C= {Cpar}
+ K1=0.000384
+ K2=1.711
+ K3= {Ind}
+ K4=0.05
+ K5=0.02
+ L=0
+ Is=0
+ a=0
+ L_Z0=0
+ L_EL=0
+ L_F0=0E6
+ PkZ=7521.94933
.ends LPS5030-682_freq

*======================================================================
* SPICE Model generated by Coilcraft
* Coilcraft Part Number : LPS5030-682
* Inductance = 6.8uH
*======================================================================
* Model Parameters:
*   Valid Frequency Range = 0.1MHz-200MHz
*   Ambient Temperature = 25 degC
*   Inductor Impedance Model
*   Use model for Time Domain simulations
*======================================================================
.subckt LPS5030-682_imp port1 port2 PARAMS: Cpar=2.62pF Ind=6.8uH
X1 port1 port2 Model1D PARAMS:
+ R1=77.517
+ R2=0.099
+ C= {Cpar}
+ K1=0.000384
+ K2=1.711
+ K3= {Ind}
+ K4=0.05
+ K5=0.02
+ L=0
+ Is=0
+ a=0
+ L_Z0=0
+ L_EL=0
+ L_F0=0E6
+ PkZ=7521.94933
.ends LPS5030-682_imp

*======================================================================
* SPICE Model generated by Coilcraft
* Coilcraft Part Number : LPS5030-822
* Inductance = 8.2uH
*======================================================================
* Model Parameters:
*   Valid Frequency Range = 0.1MHz-200MHz
*   Ambient Temperature = 25 degC
*   Inductor Frequency Model
*   Use model for Frequency Domain simulations
*======================================================================
.subckt LPS5030-822_freq port1 port2 PARAMS: Cpar=2.905pF Ind=8.2uH
X1 port1 port2 Model1A PARAMS:
+ R1=77.517
+ R2=0.125
+ C= {Cpar}
+ K1=0.000365
+ K2=2.408
+ K3= {Ind}
+ K4=0.005
+ K5=0.02
+ L=0
+ Is=0
+ a=0
+ L_Z0=0
+ L_EL=0
+ L_F0=0E6
+ PkZ=9905.32394
.ends LPS5030-822_freq

*======================================================================
* SPICE Model generated by Coilcraft
* Coilcraft Part Number : LPS5030-822
* Inductance = 8.2uH
*======================================================================
* Model Parameters:
*   Valid Frequency Range = 0.1MHz-200MHz
*   Ambient Temperature = 25 degC
*   Inductor Impedance Model
*   Use model for Time Domain simulations
*======================================================================
.subckt LPS5030-822_imp port1 port2 PARAMS: Cpar=2.88pF Ind=8.2uH
X1 port1 port2 Model1D PARAMS:
+ R1=77.517
+ R2=0.125
+ C= {Cpar}
+ K1=0.000365
+ K2=2.408
+ K3= {Ind}
+ K4=0.005
+ K5=0.02
+ L=0
+ Is=0
+ a=0
+ L_Z0=0
+ L_EL=0
+ L_F0=0E6
+ PkZ=9905.32394
.ends LPS5030-822_imp

*======================================================================
* SPICE Model generated by Coilcraft
* Coilcraft Part Number : LPS5030-103
* Inductance = 10uH
*======================================================================
* Model Parameters:
*   Valid Frequency Range = 0.1MHz-100MHz
*   Ambient Temperature = 25 degC
*   Inductor Frequency Model
*   Use model for Frequency Domain simulations
*======================================================================
.subckt LPS5030-103_freq port1 port2 PARAMS: Cpar=2.51pF Ind=10uH
X1 port1 port2 Model1A PARAMS:
+ R1=77.517
+ R2=0.127
+ C= {Cpar}
+ K1=0.000365
+ K2=2.655
+ K3= {Ind}
+ K4=0.08
+ K5=0.02
+ L=0
+ Is=0
+ a=0
+ L_Z0=0
+ L_EL=0
+ L_F0=0E6
+ PkZ=11452.862
.ends LPS5030-103_freq

*======================================================================
* SPICE Model generated by Coilcraft
* Coilcraft Part Number : LPS5030-103
* Inductance = 10uH
*======================================================================
* Model Parameters:
*   Valid Frequency Range = 0.1MHz-100MHz
*   Ambient Temperature = 25 degC
*   Inductor Impedance Model
*   Use model for Time Domain simulations
*======================================================================
.subckt LPS5030-103_imp port1 port2 PARAMS: Cpar=2.24pF Ind=10uH
X1 port1 port2 Model1D PARAMS:
+ R1=77.517
+ R2=0.127
+ C= {Cpar}
+ K1=0.000365
+ K2=2.655
+ K3= {Ind}
+ K4=0.08
+ K5=0.02
+ L=0
+ Is=0
+ a=0
+ L_Z0=0
+ L_EL=0
+ L_F0=0E6
+ PkZ=11452.862
.ends LPS5030-103_imp

*======================================================================
* SPICE Model generated by Coilcraft
* Coilcraft Part Number : LPS5030-123
* Inductance = 12uH
*======================================================================
* Model Parameters:
*   Valid Frequency Range = 0.1MHz-60MHz
*   Ambient Temperature = 25 degC
*   Inductor Frequency Model
*   Use model for Frequency Domain simulations
*======================================================================
.subckt LPS5030-123_freq port1 port2 PARAMS: Cpar=3.65pF Ind=12uH
X1 port1 port2 Model1A PARAMS:
+ R1=35.511
+ R2=0.155
+ C= {Cpar}
+ K1=0.000939
+ K2=2.788
+ K3= {Ind}
+ K4=0.1
+ K5=0.02
+ L=0
+ Is=0
+ a=0
+ L_Z0=0
+ L_EL=0
+ L_F0=0E6
+ PkZ=11792.5396
.ends LPS5030-123_freq

*======================================================================
* SPICE Model generated by Coilcraft
* Coilcraft Part Number : LPS5030-123
* Inductance = 12uH
*======================================================================
* Model Parameters:
*   Valid Frequency Range = 0.1MHz-60MHz
*   Ambient Temperature = 25 degC
*   Inductor Impedance Model
*   Use model for Time Domain simulations
*======================================================================
.subckt LPS5030-123_imp port1 port2 PARAMS: Cpar=3.25pF Ind=12uH
X1 port1 port2 Model1D PARAMS:
+ R1=35.511
+ R2=0.155
+ C= {Cpar}
+ K1=0.000939
+ K2=2.788
+ K3= {Ind}
+ K4=0.1
+ K5=0.02
+ L=0
+ Is=0
+ a=0
+ L_Z0=0
+ L_EL=0
+ L_F0=0E6
+ PkZ=11792.5396
.ends LPS5030-123_imp

*======================================================================
* SPICE Model generated by Coilcraft
* Coilcraft Part Number : LPS5030-153
* Inductance = 15uH
*======================================================================
* Model Parameters:
*   Valid Frequency Range = 0.1MHz-60MHz
*   Ambient Temperature = 25 degC
*   Inductor Frequency Model
*   Use model for Frequency Domain simulations
*======================================================================
.subckt LPS5030-153_freq port1 port2 PARAMS: Cpar=3pF Ind=15uH
X1 port1 port2 Model1A PARAMS:
+ R1=35.511
+ R2=0.16
+ C= {Cpar}
+ K1=0.000635
+ K2=3.227
+ K3= {Ind}
+ K4=0.1
+ K5=0.02
+ L=0
+ Is=0
+ a=0
+ L_Z0=0
+ L_EL=0
+ L_F0=0E6
+ PkZ=14152.6928
.ends LPS5030-153_freq

*======================================================================
* SPICE Model generated by Coilcraft
* Coilcraft Part Number : LPS5030-153
* Inductance = 15uH
*======================================================================
* Model Parameters:
*   Valid Frequency Range = 0.1MHz-60MHz
*   Ambient Temperature = 25 degC
*   Inductor Impedance Model
*   Use model for Time Domain simulations
*======================================================================
.subckt LPS5030-153_imp port1 port2 PARAMS: Cpar=2.74pF Ind=15uH
X1 port1 port2 Model1D PARAMS:
+ R1=35.511
+ R2=0.16
+ C= {Cpar}
+ K1=0.000635
+ K2=3.227
+ K3= {Ind}
+ K4=0.1
+ K5=0.02
+ L=0
+ Is=0
+ a=0
+ L_Z0=0
+ L_EL=0
+ L_F0=0E6
+ PkZ=14152.6928
.ends LPS5030-153_imp

*======================================================================
* SPICE Model generated by Coilcraft
* Coilcraft Part Number : LPS5030-183
* Inductance = 18uH
*======================================================================
* Model Parameters:
*   Valid Frequency Range = 0.1MHz-50MHz
*   Ambient Temperature = 25 degC
*   Inductor Frequency Model
*   Use model for Frequency Domain simulations
*======================================================================
.subckt LPS5030-183_freq port1 port2 PARAMS: Cpar=3.153pF Ind=18uH
X1 port1 port2 Model1A PARAMS:
+ R1=35.511
+ R2=0.17
+ C= {Cpar}
+ K1=0.000635
+ K2=3.923
+ K3= {Ind}
+ K4=0.21
+ K5=0.2
+ L=0
+ Is=0
+ a=0
+ L_Z0=0
+ L_EL=0
+ L_F0=0E6
+ PkZ=16385.0654
.ends LPS5030-183_freq

*======================================================================
* SPICE Model generated by Coilcraft
* Coilcraft Part Number : LPS5030-183
* Inductance = 18uH
*======================================================================
* Model Parameters:
*   Valid Frequency Range = 0.1MHz-50MHz
*   Ambient Temperature = 25 degC
*   Inductor Impedance Model
*   Use model for Time Domain simulations
*======================================================================
.subckt LPS5030-183_imp port1 port2 PARAMS: Cpar=2.59pF Ind=18uH
X1 port1 port2 Model1D PARAMS:
+ R1=35.511
+ R2=0.17
+ C= {Cpar}
+ K1=0.000635
+ K2=3.923
+ K3= {Ind}
+ K4=0.21
+ K5=0.2
+ L=0
+ Is=0
+ a=0
+ L_Z0=0
+ L_EL=0
+ L_F0=0E6
+ PkZ=16385.0654
.ends LPS5030-183_imp

*======================================================================
* SPICE Model generated by Coilcraft
* Coilcraft Part Number : LPS5030-223
* Inductance = 22uH
*======================================================================
* Model Parameters:
*   Valid Frequency Range = 0.1MHz-50MHz
*   Ambient Temperature = 25 degC
*   Inductor Frequency Model
*   Use model for Frequency Domain simulations
*======================================================================
.subckt LPS5030-223_freq port1 port2 PARAMS: Cpar=3.476pF Ind=22uH
X1 port1 port2 Model1A PARAMS:
+ R1=35.511
+ R2=0.19
+ C= {Cpar}
+ K1=0.000635
+ K2=4.325
+ K3= {Ind}
+ K4=0.18
+ K5=0.1
+ L=0
+ Is=0
+ a=0
+ L_Z0=0
+ L_EL=0
+ L_F0=0E6
+ PkZ=16839.3566
.ends LPS5030-223_freq

*======================================================================
* SPICE Model generated by Coilcraft
* Coilcraft Part Number : LPS5030-223
* Inductance = 22uH
*======================================================================
* Model Parameters:
*   Valid Frequency Range = 0.1MHz-50MHz
*   Ambient Temperature = 25 degC
*   Inductor Impedance Model
*   Use model for Time Domain simulations
*======================================================================
.subckt LPS5030-223_imp port1 port2 PARAMS: Cpar=3.07pF Ind=22uH
X1 port1 port2 Model1D PARAMS:
+ R1=35.511
+ R2=0.19
+ C= {Cpar}
+ K1=0.000635
+ K2=4.325
+ K3= {Ind}
+ K4=0.18
+ K5=0.1
+ L=0
+ Is=0
+ a=0
+ L_Z0=0
+ L_EL=0
+ L_F0=0E6
+ PkZ=16839.3566
.ends LPS5030-223_imp

*======================================================================
* SPICE Model generated by Coilcraft
* Coilcraft Part Number : LPS5030-333
* Inductance = 33uH
*======================================================================
* Model Parameters:
*   Valid Frequency Range = 0.1MHz-50MHz
*   Ambient Temperature = 25 degC
*   Inductor Frequency Model
*   Use model for Frequency Domain simulations
*======================================================================
.subckt LPS5030-333_freq port1 port2 PARAMS: Cpar=3.832pF Ind=33uH
X1 port1 port2 Model1A PARAMS:
+ R1=26.5
+ R2=0.26
+ C= {Cpar}
+ K1=0.000635
+ K2=7.045
+ K3= {Ind}
+ K4=0.4
+ K5=0.08
+ L=0
+ Is=0
+ a=0
+ L_Z0=0
+ L_EL=0
+ L_F0=0E6
+ PkZ=24949.5702
.ends LPS5030-333_freq

*======================================================================
* SPICE Model generated by Coilcraft
* Coilcraft Part Number : LPS5030-333
* Inductance = 33uH
*======================================================================
* Model Parameters:
*   Valid Frequency Range = 0.1MHz-50MHz
*   Ambient Temperature = 25 degC
*   Inductor Impedance Model
*   Use model for Time Domain simulations
*======================================================================
.subckt LPS5030-333_imp port1 port2 PARAMS: Cpar=3.18pF Ind=33uH
X1 port1 port2 Model1D PARAMS:
+ R1=26.5
+ R2=0.26
+ C= {Cpar}
+ K1=0.000635
+ K2=7.045
+ K3= {Ind}
+ K4=0.4
+ K5=0.08
+ L=0
+ Is=0
+ a=0
+ L_Z0=0
+ L_EL=0
+ L_F0=0E6
+ PkZ=24949.5702
.ends LPS5030-333_imp

*======================================================================
* SPICE Model generated by Coilcraft
* Coilcraft Part Number : LPS5030-473
* Inductance = 47uH
*======================================================================
* Model Parameters:
*   Valid Frequency Range = 0.1MHz-40MHz
*   Ambient Temperature = 25 degC
*   Inductor Frequency Model
*   Use model for Frequency Domain simulations
*======================================================================
.subckt LPS5030-473_freq port1 port2 PARAMS: Cpar=3.311pF Ind=47uH
X1 port1 port2 Model1A PARAMS:
+ R1=35
+ R2=0.33
+ C= {Cpar}
+ K1=0.000635
+ K2=9.912
+ K3= {Ind}
+ K4=0.5
+ K5=2
+ L=0
+ Is=0
+ a=0
+ L_Z0=0
+ L_EL=0
+ L_F0=0E6
+ PkZ=33237.7014
.ends LPS5030-473_freq

*======================================================================
* SPICE Model generated by Coilcraft
* Coilcraft Part Number : LPS5030-473
* Inductance = 47uH
*======================================================================
* Model Parameters:
*   Valid Frequency Range = 0.1MHz-40MHz
*   Ambient Temperature = 25 degC
*   Inductor Impedance Model
*   Use model for Time Domain simulations
*======================================================================
.subckt LPS5030-473_imp port1 port2 PARAMS: Cpar=2.71pF Ind=47uH
X1 port1 port2 Model1D PARAMS:
+ R1=35
+ R2=0.33
+ C= {Cpar}
+ K1=0.000635
+ K2=9.912
+ K3= {Ind}
+ K4=0.5
+ K5=2
+ L=0
+ Is=0
+ a=0
+ L_Z0=0
+ L_EL=0
+ L_F0=0E6
+ PkZ=33237.7014
.ends LPS5030-473_imp

*======================================================================
* SPICE Model generated by Coilcraft
* Coilcraft Part Number : LPS5030-683
* Inductance = 68uH
*======================================================================
* Model Parameters:
*   Valid Frequency Range = 0.1MHz-40MHz
*   Ambient Temperature = 25 degC
*   Inductor Frequency Model
*   Use model for Frequency Domain simulations
*======================================================================
.subckt LPS5030-683_freq port1 port2 PARAMS: Cpar=3.476pF Ind=68uH
X1 port1 port2 Model1A PARAMS:
+ R1=20.763
+ R2=0.44
+ C= {Cpar}
+ K1=0.000635
+ K2=13.283
+ K3= {Ind}
+ K4=0.01
+ K5=0.6
+ L=0
+ Is=0
+ a=0
+ L_Z0=0
+ L_EL=0
+ L_F0=0E6
+ PkZ=40727.4859
.ends LPS5030-683_freq

*======================================================================
* SPICE Model generated by Coilcraft
* Coilcraft Part Number : LPS5030-683
* Inductance = 68uH
*======================================================================
* Model Parameters:
*   Valid Frequency Range = 0.1MHz-40MHz
*   Ambient Temperature = 25 degC
*   Inductor Impedance Model
*   Use model for Time Domain simulations
*======================================================================
.subckt LPS5030-683_imp port1 port2 PARAMS: Cpar=3.47pF Ind=68uH
X1 port1 port2 Model1D PARAMS:
+ R1=20.763
+ R2=0.44
+ C= {Cpar}
+ K1=0.000635
+ K2=13.283
+ K3= {Ind}
+ K4=0.01
+ K5=0.6
+ L=0
+ Is=0
+ a=0
+ L_Z0=0
+ L_EL=0
+ L_F0=0E6
+ PkZ=40727.4859
.ends LPS5030-683_imp

*======================================================================
* SPICE Model generated by Coilcraft
* Coilcraft Part Number : LPS5030-823
* Inductance = 82uH
*======================================================================
* Model Parameters:
*   Valid Frequency Range = 0.1MHz-40MHz
*   Ambient Temperature = 25 degC
*   Inductor Frequency Model
*   Use model for Frequency Domain simulations
*======================================================================
.subckt LPS5030-823_freq port1 port2 PARAMS: Cpar=3.476pF Ind=82uH
X1 port1 port2 Model1A PARAMS:
+ R1=26.5
+ R2=0.47
+ C= {Cpar}
+ K1=0.000635
+ K2=16.146
+ K3= {Ind}
+ K4=0.523
+ K5=2
+ L=0
+ Is=0
+ a=0
+ L_Z0=0
+ L_EL=0
+ L_F0=0E6
+ PkZ=47702.9618
.ends LPS5030-823_freq

*======================================================================
* SPICE Model generated by Coilcraft
* Coilcraft Part Number : LPS5030-823
* Inductance = 82uH
*======================================================================
* Model Parameters:
*   Valid Frequency Range = 0.1MHz-40MHz
*   Ambient Temperature = 25 degC
*   Inductor Impedance Model
*   Use model for Time Domain simulations
*======================================================================
.subckt LPS5030-823_imp port1 port2 PARAMS: Cpar=3.10pF Ind=82uH
X1 port1 port2 Model1D PARAMS:
+ R1=26.5
+ R2=0.47
+ C= {Cpar}
+ K1=0.000635
+ K2=16.146
+ K3= {Ind}
+ K4=0.523
+ K5=2
+ L=0
+ Is=0
+ a=0
+ L_Z0=0
+ L_EL=0
+ L_F0=0E6
+ PkZ=47702.9618
.ends LPS5030-823_imp

*======================================================================
* SPICE Model generated by Coilcraft
* Coilcraft Part Number : LPS5030-104
* Inductance = 100uH
*======================================================================
* Model Parameters:
*   Valid Frequency Range = 0.1MHz-40MHz
*   Ambient Temperature = 25 degC
*   Inductor Frequency Model
*   Use model for Frequency Domain simulations
*======================================================================
.subckt LPS5030-104_freq port1 port2 PARAMS: Cpar=3.476pF Ind=100uH
X1 port1 port2 Model1A PARAMS:
+ R1=26.5
+ R2=0.6
+ C= {Cpar}
+ K1=0.000635
+ K2=16.953
+ K3= {Ind}
+ K4=0.75
+ K5=5
+ L=0
+ Is=0
+ a=0
+ L_Z0=0
+ L_EL=0
+ L_F0=0E6
+ PkZ=48481.7761
.ends LPS5030-104_freq

*======================================================================
* SPICE Model generated by Coilcraft
* Coilcraft Part Number : LPS5030-104
* Inductance = 100uH
*======================================================================
* Model Parameters:
*   Valid Frequency Range = 0.1MHz-40MHz
*   Ambient Temperature = 25 degC
*   Inductor Impedance Model
*   Use model for Time Domain simulations
*======================================================================
.subckt LPS5030-104_imp port1 port2 PARAMS: Cpar=3.02pF Ind=100uH
X1 port1 port2 Model1D PARAMS:
+ R1=26.5
+ R2=0.6
+ C= {Cpar}
+ K1=0.000635
+ K2=16.953
+ K3= {Ind}
+ K4=0.75
+ K5=5
+ L=0
+ Is=0
+ a=0
+ L_Z0=0
+ L_EL=0
+ L_F0=0E6
+ PkZ=48481.7761
.ends LPS5030-104_imp

*======================================================================
* SPICE Model generated by Coilcraft