*======================================================================
* SPICE Model generated by Coilcraft
* Coilcraft Part Number : LPS5015-102
* Inductance = 1uH
*======================================================================
* Model Parameters:
*   Valid Frequency Range = 0.1MHz-500MHz
*   Ambient Temperature = 25 degC
*   Inductor Frequency Model
*   Use model for Frequency Domain simulations
*======================================================================
.subckt LPS5015-102_freq port1 port2 PARAMS: Cpar=1pF Ind=1uH
X1 port1 port2 Model1A PARAMS:
+ R1=55
+ R2=0.05
+ C= {Cpar}
+ K1=0.00000006
+ K2=0.155
+ K3= {Ind}
+ K4=0.015
+ K5=0.00001
+ L=0
+ Is=0
+ a=0
+ L_Z0=0
+ L_EL=0
+ L_F0=0E6
+ PkZ=1791.26446
.ends LPS5015-102_freq

*======================================================================
* SPICE Model generated by Coilcraft
* Coilcraft Part Number : LPS5015-102
* Inductance = 1uH
*======================================================================
* Model Parameters:
*   Valid Frequency Range = 0.1MHz-500MHz
*   Ambient Temperature = 25 degC
*   Inductor Impedance Model
*   Use model for Time Domain simulations
*======================================================================
.subckt LPS5015-102_imp port1 port2 PARAMS: Cpar=0.89pF Ind=1uH
X1 port1 port2 Model1D PARAMS:
+ R1=55
+ R2=0.05
+ C= {Cpar}
+ K1=0.00000006
+ K2=0.155
+ K3= {Ind}
+ K4=0.015
+ K5=0.00001
+ L=0
+ Is=0
+ a=0
+ L_Z0=0
+ L_EL=0
+ L_F0=0E6
+ PkZ=1791.26446
.ends LPS5015-102_imp

*======================================================================
* SPICE Model generated by Coilcraft
* Coilcraft Part Number : LPS5015-132
* Inductance = 1.3uH
*======================================================================
* Model Parameters:
*   Valid Frequency Range = 0.1MHz-500MHz
*   Ambient Temperature = 25 degC
*   Inductor Frequency Model
*   Use model for Frequency Domain simulations
*======================================================================
.subckt LPS5015-132_freq port1 port2 PARAMS: Cpar=0.9pF Ind=1.3uH
X1 port1 port2 Model1A PARAMS:
+ R1=50
+ R2=0.065
+ C= {Cpar}
+ K1=0.00000006
+ K2=0.23
+ K3= {Ind}
+ K4=0.016
+ K5=0.0000098
+ L=0
+ Is=0
+ a=0
+ L_Z0=0
+ L_EL=0
+ L_F0=0E6
+ PkZ=2576.84783
.ends LPS5015-132_freq

*======================================================================
* SPICE Model generated by Coilcraft
* Coilcraft Part Number : LPS5015-132
* Inductance = 1.3uH
*======================================================================
* Model Parameters:
*   Valid Frequency Range = 0.1MHz-500MHz
*   Ambient Temperature = 25 degC
*   Inductor Impedance Model
*   Use model for Time Domain simulations
*======================================================================
.subckt LPS5015-132_imp port1 port2 PARAMS: Cpar=0.82pF Ind=1.3uH
X1 port1 port2 Model1D PARAMS:
+ R1=50
+ R2=0.065
+ C= {Cpar}
+ K1=0.00000006
+ K2=0.23
+ K3= {Ind}
+ K4=0.016
+ K5=0.0000098
+ L=0
+ Is=0
+ a=0
+ L_Z0=0
+ L_EL=0
+ L_F0=0E6
+ PkZ=2576.84783
.ends LPS5015-132_imp

*======================================================================
* SPICE Model generated by Coilcraft
* Coilcraft Part Number : LPS5015-182
* Inductance = 1.8uH
*======================================================================
* Model Parameters:
*   Valid Frequency Range = 0.1MHz-500MHz
*   Ambient Temperature = 25 degC
*   Inductor Frequency Model
*   Use model for Frequency Domain simulations
*======================================================================
.subckt LPS5015-182_freq port1 port2 PARAMS: Cpar=1.1pF Ind=1.8uH
X1 port1 port2 Model1A PARAMS:
+ R1=42
+ R2=0.075
+ C= {Cpar}
+ K1=0.00000006
+ K2=0.34
+ K3= {Ind}
+ K4=0.029
+ K5=0.0000099
+ L=0
+ Is=0
+ a=0
+ L_Z0=0
+ L_EL=0
+ L_F0=0E6
+ PkZ=3363.81591
.ends LPS5015-182_freq

*======================================================================
* SPICE Model generated by Coilcraft
* Coilcraft Part Number : LPS5015-182
* Inductance = 1.8uH
*======================================================================
* Model Parameters:
*   Valid Frequency Range = 0.1MHz-500MHz
*   Ambient Temperature = 25 degC
*   Inductor Impedance Model
*   Use model for Time Domain simulations
*======================================================================
.subckt LPS5015-182_imp port1 port2 PARAMS: Cpar=0.98pF Ind=1.8uH
X1 port1 port2 Model1D PARAMS:
+ R1=42
+ R2=0.075
+ C= {Cpar}
+ K1=0.00000006
+ K2=0.34
+ K3= {Ind}
+ K4=0.029
+ K5=0.0000099
+ L=0
+ Is=0
+ a=0
+ L_Z0=0
+ L_EL=0
+ L_F0=0E6
+ PkZ=3363.81591
.ends LPS5015-182_imp

*======================================================================
* SPICE Model generated by Coilcraft
* Coilcraft Part Number : LPS5015-222
* Inductance = 2.2uH
*======================================================================
* Model Parameters:
*   Valid Frequency Range = 0.1MHz-500MHz
*   Ambient Temperature = 25 degC
*   Inductor Frequency Model
*   Use model for Frequency Domain simulations
*======================================================================
.subckt LPS5015-222_freq port1 port2 PARAMS: Cpar=1pF Ind=2.2uH
X1 port1 port2 Model1A PARAMS:
+ R1=36
+ R2=0.09
+ C= {Cpar}
+ K1=0.00000006
+ K2=0.44
+ K3= {Ind}
+ K4=0.022
+ K5=0.00000985
+ L=0
+ Is=0
+ a=0
+ L_Z0=0
+ L_EL=0
+ L_F0=0E6
+ PkZ=4290.85859
.ends LPS5015-222_freq

*======================================================================
* SPICE Model generated by Coilcraft
* Coilcraft Part Number : LPS5015-222
* Inductance = 2.2uH
*======================================================================
* Model Parameters:
*   Valid Frequency Range = 0.1MHz-500MHz
*   Ambient Temperature = 25 degC
*   Inductor Impedance Model
*   Use model for Time Domain simulations
*======================================================================
.subckt LPS5015-222_imp port1 port2 PARAMS: Cpar=0.93pF Ind=2.2uH
X1 port1 port2 Model1D PARAMS:
+ R1=36
+ R2=0.09
+ C= {Cpar}
+ K1=0.00000006
+ K2=0.44
+ K3= {Ind}
+ K4=0.022
+ K5=0.00000985
+ L=0
+ Is=0
+ a=0
+ L_Z0=0
+ L_EL=0
+ L_F0=0E6
+ PkZ=4290.85859
.ends LPS5015-222_imp

*======================================================================
* SPICE Model generated by Coilcraft
* Coilcraft Part Number : LPS5015-332
* Inductance = 3.3uH
*======================================================================
* Model Parameters:
*   Valid Frequency Range = 0.1MHz-500MHz
*   Ambient Temperature = 25 degC
*   Inductor Frequency Model
*   Use model for Frequency Domain simulations
*======================================================================
.subckt LPS5015-332_freq port1 port2 PARAMS: Cpar=1.3pF Ind=3.3uH
X1 port1 port2 Model1A PARAMS:
+ R1=13
+ R2=0.125
+ C= {Cpar}
+ K1=0.00000006
+ K2=0.77
+ K3= {Ind}
+ K4=0.06
+ K5=0.00001
+ L=0
+ Is=0
+ a=0
+ L_Z0=0
+ L_EL=0
+ L_F0=0E6
+ PkZ=6698.54373
.ends LPS5015-332_freq

*======================================================================
* SPICE Model generated by Coilcraft
* Coilcraft Part Number : LPS5015-332
* Inductance = 3.3uH
*======================================================================
* Model Parameters:
*   Valid Frequency Range = 0.1MHz-500MHz
*   Ambient Temperature = 25 degC
*   Inductor Impedance Model
*   Use model for Time Domain simulations
*======================================================================
.subckt LPS5015-332_imp port1 port2 PARAMS: Cpar=1.14pF Ind=3.3uH
X1 port1 port2 Model1D PARAMS:
+ R1=13
+ R2=0.125
+ C= {Cpar}
+ K1=0.00000006
+ K2=0.77
+ K3= {Ind}
+ K4=0.06
+ K5=0.00001
+ L=0
+ Is=0
+ a=0
+ L_Z0=0
+ L_EL=0
+ L_F0=0E6
+ PkZ=6698.54373
.ends LPS5015-332_imp

*======================================================================
* SPICE Model generated by Coilcraft
* Coilcraft Part Number : LPS5015-472
* Inductance = 4.7uH
*======================================================================
* Model Parameters:
*   Valid Frequency Range = 0.1MHz-500MHz
*   Ambient Temperature = 25 degC
*   Inductor Frequency Model
*   Use model for Frequency Domain simulations
*======================================================================
.subckt LPS5015-472_freq port1 port2 PARAMS: Cpar=1.4pF Ind=4.7uH
X1 port1 port2 Model1A PARAMS:
+ R1=15
+ R2=0.15
+ C= {Cpar}
+ K1=0.00000006
+ K2=1.25
+ K3= {Ind}
+ K4=0.077
+ K5=0.00001
+ L=0
+ Is=0
+ a=0
+ L_Z0=0
+ L_EL=0
+ L_F0=0E6
+ PkZ=9636.7031
.ends LPS5015-472_freq

*======================================================================
* SPICE Model generated by Coilcraft
* Coilcraft Part Number : LPS5015-472
* Inductance = 4.7uH
*======================================================================
* Model Parameters:
*   Valid Frequency Range = 0.1MHz-500MHz
*   Ambient Temperature = 25 degC
*   Inductor Impedance Model
*   Use model for Time Domain simulations
*======================================================================
.subckt LPS5015-472_imp port1 port2 PARAMS: Cpar=1.25pF Ind=4.7uH
X1 port1 port2 Model1D PARAMS:
+ R1=15
+ R2=0.15
+ C= {Cpar}
+ K1=0.00000006
+ K2=1.25
+ K3= {Ind}
+ K4=0.077
+ K5=0.00001
+ L=0
+ Is=0
+ a=0
+ L_Z0=0
+ L_EL=0
+ L_F0=0E6
+ PkZ=9636.7031
.ends LPS5015-472_imp

*======================================================================
* SPICE Model generated by Coilcraft
* Coilcraft Part Number : LPS5015-562
* Inductance = 5.6uH
*======================================================================
* Model Parameters:
*   Valid Frequency Range = 0.1MHz-500MHz
*   Ambient Temperature = 25 degC
*   Inductor Frequency Model
*   Use model for Frequency Domain simulations
*======================================================================
.subckt LPS5015-562_freq port1 port2 PARAMS: Cpar=1.6pF Ind=5.6uH
X1 port1 port2 Model1A PARAMS:
+ R1=9
+ R2=0.175
+ C= {Cpar}
+ K1=0.00000006
+ K2=1.4
+ K3= {Ind}
+ K4=0.07
+ K5=0.00001
+ L=0
+ Is=0
+ a=0
+ L_Z0=0
+ L_EL=0
+ L_F0=0E6
+ PkZ=10124.8887
.ends LPS5015-562_freq

*======================================================================
* SPICE Model generated by Coilcraft
* Coilcraft Part Number : LPS5015-562
* Inductance = 5.6uH
*======================================================================
* Model Parameters:
*   Valid Frequency Range = 0.1MHz-500MHz
*   Ambient Temperature = 25 degC
*   Inductor Impedance Model
*   Use model for Time Domain simulations
*======================================================================
.subckt LPS5015-562_imp port1 port2 PARAMS: Cpar=1.47pF Ind=5.6uH
X1 port1 port2 Model1D PARAMS:
+ R1=9
+ R2=0.175
+ C= {Cpar}
+ K1=0.00000006
+ K2=1.4
+ K3= {Ind}
+ K4=0.07
+ K5=0.00001
+ L=0
+ Is=0
+ a=0
+ L_Z0=0
+ L_EL=0
+ L_F0=0E6
+ PkZ=10124.8887
.ends LPS5015-562_imp

*======================================================================
* SPICE Model generated by Coilcraft
* Coilcraft Part Number : LPS5015-682
* Inductance = 6.8uH
*======================================================================
* Model Parameters:
*   Valid Frequency Range = 0.1MHz-500MHz
*   Ambient Temperature = 25 degC
*   Inductor Frequency Model
*   Use model for Frequency Domain simulations
*======================================================================
.subckt LPS5015-682_freq port1 port2 PARAMS: Cpar=1.6pF Ind=6.8uH
X1 port1 port2 Model1A PARAMS:
+ R1=12
+ R2=0.225
+ C= {Cpar}
+ K1=0.00000006
+ K2=1.9
+ K3= {Ind}
+ K4=0.04
+ K5=0.00001
+ L=0
+ Is=0
+ a=0
+ L_Z0=0
+ L_EL=0
+ L_F0=0E6
+ PkZ=12820.5202
.ends LPS5015-682_freq

*======================================================================
* SPICE Model generated by Coilcraft
* Coilcraft Part Number : LPS5015-682
* Inductance = 6.8uH
*======================================================================
* Model Parameters:
*   Valid Frequency Range = 0.1MHz-500MHz
*   Ambient Temperature = 25 degC
*   Inductor Impedance Model
*   Use model for Time Domain simulations
*======================================================================
.subckt LPS5015-682_imp port1 port2 PARAMS: Cpar=1.54pF Ind=6.8uH
X1 port1 port2 Model1D PARAMS:
+ R1=12
+ R2=0.225
+ C= {Cpar}
+ K1=0.00000006
+ K2=1.9
+ K3= {Ind}
+ K4=0.04
+ K5=0.00001
+ L=0
+ Is=0
+ a=0
+ L_Z0=0
+ L_EL=0
+ L_F0=0E6
+ PkZ=12820.5202
.ends LPS5015-682_imp

*======================================================================
* SPICE Model generated by Coilcraft
* Coilcraft Part Number : LPS5015-103
* Inductance = 10uH
*======================================================================
* Model Parameters:
*   Valid Frequency Range = 0.1MHz-500MHz
*   Ambient Temperature = 25 degC
*   Inductor Frequency Model
*   Use model for Frequency Domain simulations
*======================================================================
.subckt LPS5015-103_freq port1 port2 PARAMS: Cpar=1.65pF Ind=10uH
X1 port1 port2 Model1A PARAMS:
+ R1=10
+ R2=0.3
+ C= {Cpar}
+ K1=0.00000006
+ K2=2.9
+ K3= {Ind}
+ K4=0.1
+ K5=0.00001
+ L=0
+ Is=0
+ a=0
+ L_Z0=0
+ L_EL=0
+ L_F0=0E6
+ PkZ=17856.6907
.ends LPS5015-103_freq

*======================================================================
* SPICE Model generated by Coilcraft
* Coilcraft Part Number : LPS5015-103
* Inductance = 10uH
*======================================================================
* Model Parameters:
*   Valid Frequency Range = 0.1MHz-500MHz
*   Ambient Temperature = 25 degC
*   Inductor Impedance Model
*   Use model for Time Domain simulations
*======================================================================
.subckt LPS5015-103_imp port1 port2 PARAMS: Cpar=1.55pF Ind=10uH
X1 port1 port2 Model1D PARAMS:
+ R1=10
+ R2=0.3
+ C= {Cpar}
+ K1=0.00000006
+ K2=2.9
+ K3= {Ind}
+ K4=0.1
+ K5=0.00001
+ L=0
+ Is=0
+ a=0
+ L_Z0=0
+ L_EL=0
+ L_F0=0E6
+ PkZ=17856.6907
.ends LPS5015-103_imp

*======================================================================
* SPICE Model generated by Coilcraft
* Coilcraft Part Number : LPS5015-123
* Inductance = 12uH
*======================================================================
* Model Parameters:
*   Valid Frequency Range = 0.1MHz-500MHz
*   Ambient Temperature = 25 degC
*   Inductor Frequency Model
*   Use model for Frequency Domain simulations
*======================================================================
.subckt LPS5015-123_freq port1 port2 PARAMS: Cpar=1.75pF Ind=12uH
X1 port1 port2 Model1A PARAMS:
+ R1=5.8
+ R2=0.35
+ C= {Cpar}
+ K1=0.00000006
+ K2=3.5
+ K3= {Ind}
+ K4=0.12
+ K5=0.00001
+ L=0
+ Is=0
+ a=0
+ L_Z0=0
+ L_EL=0
+ L_F0=0E6
+ PkZ=20553.2187
.ends LPS5015-123_freq

*======================================================================
* SPICE Model generated by Coilcraft
* Coilcraft Part Number : LPS5015-123
* Inductance = 12uH
*======================================================================
* Model Parameters:
*   Valid Frequency Range = 0.1MHz-500MHz
*   Ambient Temperature = 25 degC
*   Inductor Impedance Model
*   Use model for Time Domain simulations
*======================================================================
.subckt LPS5015-123_imp port1 port2 PARAMS: Cpar=1.65pF Ind=12uH
X1 port1 port2 Model1D PARAMS:
+ R1=5.8
+ R2=0.35
+ C= {Cpar}
+ K1=0.00000006
+ K2=3.5
+ K3= {Ind}
+ K4=0.12
+ K5=0.00001
+ L=0
+ Is=0
+ a=0
+ L_Z0=0
+ L_EL=0
+ L_F0=0E6
+ PkZ=20553.2187
.ends LPS5015-123_imp

*======================================================================
* SPICE Model generated by Coilcraft
* Coilcraft Part Number : LPS5015-153
* Inductance = 15uH
*======================================================================
* Model Parameters:
*   Valid Frequency Range = 0.1MHz-500MHz
*   Ambient Temperature = 25 degC
*   Inductor Frequency Model
*   Use model for Frequency Domain simulations
*======================================================================
.subckt LPS5015-153_freq port1 port2 PARAMS: Cpar=1.6pF Ind=15uH
X1 port1 port2 Model1A PARAMS:
+ R1=15
+ R2=0.36
+ C= {Cpar}
+ K1=0.00000006
+ K2=4
+ K3= {Ind}
+ K4=0.19
+ K5=0.00000995
+ L=0
+ Is=0
+ a=0
+ L_Z0=0
+ L_EL=0
+ L_F0=0E6
+ PkZ=22340.4627
.ends LPS5015-153_freq

*======================================================================
* SPICE Model generated by Coilcraft
* Coilcraft Part Number : LPS5015-153
* Inductance = 15uH
*======================================================================
* Model Parameters:
*   Valid Frequency Range = 0.1MHz-500MHz
*   Ambient Temperature = 25 degC
*   Inductor Impedance Model
*   Use model for Time Domain simulations
*======================================================================
.subckt LPS5015-153_imp port1 port2 PARAMS: Cpar=1.48pF Ind=15uH
X1 port1 port2 Model1D PARAMS:
+ R1=15
+ R2=0.36
+ C= {Cpar}
+ K1=0.00000006
+ K2=4
+ K3= {Ind}
+ K4=0.19
+ K5=0.00000995
+ L=0
+ Is=0
+ a=0
+ L_Z0=0
+ L_EL=0
+ L_F0=0E6
+ PkZ=22340.4627
.ends LPS5015-153_imp

*======================================================================
* SPICE Model generated by Coilcraft
* Coilcraft Part Number : LPS5015-183
* Inductance = 18uH
*======================================================================
* Model Parameters:
*   Valid Frequency Range = 0.1MHz-500MHz
*   Ambient Temperature = 25 degC
*   Inductor Frequency Model
*   Use model for Frequency Domain simulations
*======================================================================
.subckt LPS5015-183_freq port1 port2 PARAMS: Cpar=1.6pF Ind=18uH
X1 port1 port2 Model1A PARAMS:
+ R1=13
+ R2=0.55
+ C= {Cpar}
+ K1=0.00000006
+ K2=5
+ K3= {Ind}
+ K4=0.3
+ K5=0.00000997
+ L=0
+ Is=0
+ a=0
+ L_Z0=0
+ L_EL=0
+ L_F0=0E6
+ PkZ=26954.7842
.ends LPS5015-183_freq

*======================================================================
* SPICE Model generated by Coilcraft
* Coilcraft Part Number : LPS5015-183
* Inductance = 18uH
*======================================================================
* Model Parameters:
*   Valid Frequency Range = 0.1MHz-500MHz
*   Ambient Temperature = 25 degC
*   Inductor Impedance Model
*   Use model for Time Domain simulations
*======================================================================
.subckt LPS5015-183_imp port1 port2 PARAMS: Cpar=1.45pF Ind=18uH
X1 port1 port2 Model1D PARAMS:
+ R1=13
+ R2=0.55
+ C= {Cpar}
+ K1=0.00000006
+ K2=5
+ K3= {Ind}
+ K4=0.3
+ K5=0.00000997
+ L=0
+ Is=0
+ a=0
+ L_Z0=0
+ L_EL=0
+ L_F0=0E6
+ PkZ=26954.7842
.ends LPS5015-183_imp

*======================================================================
* SPICE Model generated by Coilcraft
* Coilcraft Part Number : LPS5015-223
* Inductance = 22uH
*======================================================================
* Model Parameters:
*   Valid Frequency Range = 0.1MHz-500MHz
*   Ambient Temperature = 25 degC
*   Inductor Frequency Model
*   Use model for Frequency Domain simulations
*======================================================================
.subckt LPS5015-223_freq port1 port2 PARAMS: Cpar=1.6pF Ind=22uH
X1 port1 port2 Model1A PARAMS:
+ R1=10
+ R2=0.675
+ C= {Cpar}
+ K1=0.00000006
+ K2=6
+ K3= {Ind}
+ K4=0.3
+ K5=0.00000997
+ L=0
+ Is=0
+ a=0
+ L_Z0=0
+ L_EL=0
+ L_F0=0E6
+ PkZ=30926.5391
.ends LPS5015-223_freq

*======================================================================
* SPICE Model generated by Coilcraft
* Coilcraft Part Number : LPS5015-223
* Inductance = 22uH
*======================================================================
* Model Parameters:
*   Valid Frequency Range = 0.1MHz-500MHz
*   Ambient Temperature = 25 degC
*   Inductor Impedance Model
*   Use model for Time Domain simulations
*======================================================================
.subckt LPS5015-223_imp port1 port2 PARAMS: Cpar=1.48pF Ind=22uH
X1 port1 port2 Model1D PARAMS:
+ R1=10
+ R2=0.675
+ C= {Cpar}
+ K1=0.00000006
+ K2=6
+ K3= {Ind}
+ K4=0.3
+ K5=0.00000997
+ L=0
+ Is=0
+ a=0
+ L_Z0=0
+ L_EL=0
+ L_F0=0E6
+ PkZ=30926.5391
.ends LPS5015-223_imp

*======================================================================
* SPICE Model generated by Coilcraft
* Coilcraft Part Number : LPS5015-333
* Inductance = 33uH
*======================================================================
* Model Parameters:
*   Valid Frequency Range = 0.1MHz-300MHz
*   Ambient Temperature = 25 degC
*   Inductor Frequency Model
*   Use model for Frequency Domain simulations
*======================================================================
.subckt LPS5015-333_freq port1 port2 PARAMS: Cpar=1.6pF Ind=33uH
X1 port1 port2 Model1A PARAMS:
+ R1=24
+ R2=0.75
+ C= {Cpar}
+ K1=0.00000006
+ K2=9
+ K3= {Ind}
+ K4=0.66
+ K5=0.00000998
+ L=0
+ Is=0
+ a=0
+ L_Z0=0
+ L_EL=0
+ L_F0=0E6
+ PkZ=41017.4293
.ends LPS5015-333_freq

*======================================================================
* SPICE Model generated by Coilcraft
* Coilcraft Part Number : LPS5015-333
* Inductance = 33uH
*======================================================================
* Model Parameters:
*   Valid Frequency Range = 0.1MHz-300MHz
*   Ambient Temperature = 25 degC
*   Inductor Impedance Model
*   Use model for Time Domain simulations
*======================================================================
.subckt LPS5015-333_imp port1 port2 PARAMS: Cpar=1.43pF Ind=33uH
X1 port1 port2 Model1D PARAMS:
+ R1=24
+ R2=0.75
+ C= {Cpar}
+ K1=0.00000006
+ K2=9
+ K3= {Ind}
+ K4=0.66
+ K5=0.00000998
+ L=0
+ Is=0
+ a=0
+ L_Z0=0
+ L_EL=0
+ L_F0=0E6
+ PkZ=41017.4293
.ends LPS5015-333_imp

*======================================================================
* SPICE Model generated by Coilcraft
* Coilcraft Part Number : LPS5015-473
* Inductance = 47uH
*======================================================================
* Model Parameters:
*   Valid Frequency Range = 0.1MHz-200MHz
*   Ambient Temperature = 25 degC
*   Inductor Frequency Model
*   Use model for Frequency Domain simulations
*======================================================================
.subckt LPS5015-473_freq port1 port2 PARAMS: Cpar=1.7pF Ind=47uH
X1 port1 port2 Model1A PARAMS:
+ R1=20
+ R2=1
+ C= {Cpar}
+ K1=0.00000006
+ K2=11.5
+ K3= {Ind}
+ K4=0.25
+ K5=0.00000992
+ L=0
+ Is=0
+ a=0
+ L_Z0=0
+ L_EL=0
+ L_F0=0E6
+ PkZ=47152.4135
.ends LPS5015-473_freq

*======================================================================
* SPICE Model generated by Coilcraft
* Coilcraft Part Number : LPS5015-473
* Inductance = 47uH
*======================================================================
* Model Parameters:
*   Valid Frequency Range = 0.1MHz-200MHz
*   Ambient Temperature = 25 degC
*   Inductor Impedance Model
*   Use model for Time Domain simulations
*======================================================================
.subckt LPS5015-473_imp port1 port2 PARAMS: Cpar=1.65pF Ind=47uH
X1 port1 port2 Model1D PARAMS:
+ R1=20
+ R2=1
+ C= {Cpar}
+ K1=0.00000006
+ K2=11.5
+ K3= {Ind}
+ K4=0.25
+ K5=0.00000992
+ L=0
+ Is=0
+ a=0
+ L_Z0=0
+ L_EL=0
+ L_F0=0E6
+ PkZ=47152.4135
.ends LPS5015-473_imp

*======================================================================
* SPICE Model generated by Coilcraft
* Coilcraft Part Number : LPS5015-563
* Inductance = 56uH
*======================================================================
* Model Parameters:
*   Valid Frequency Range = 0.1MHz-300MHz
*   Ambient Temperature = 25 degC
*   Inductor Frequency Model
*   Use model for Frequency Domain simulations
*======================================================================
.subckt LPS5015-563_freq port1 port2 PARAMS: Cpar=1.9pF Ind=56uH
X1 port1 port2 Model1A PARAMS:
+ R1=15
+ R2=1.13
+ C= {Cpar}
+ K1=0.00000006
+ K2=13
+ K3= {Ind}
+ K4=0.32
+ K5=0.00000994
+ L=0
+ Is=0
+ a=0
+ L_Z0=0
+ L_EL=0
+ L_F0=0E6
+ PkZ=50089.3049
.ends LPS5015-563_freq

*======================================================================
* SPICE Model generated by Coilcraft
* Coilcraft Part Number : LPS5015-563
* Inductance = 56uH
*======================================================================
* Model Parameters:
*   Valid Frequency Range = 0.1MHz-300MHz
*   Ambient Temperature = 25 degC
*   Inductor Impedance Model
*   Use model for Time Domain simulations
*======================================================================
.subckt LPS5015-563_imp port1 port2 PARAMS: Cpar=1.85pF Ind=56uH
X1 port1 port2 Model1D PARAMS:
+ R1=15
+ R2=1.13
+ C= {Cpar}
+ K1=0.00000006
+ K2=13
+ K3= {Ind}
+ K4=0.32
+ K5=0.00000994
+ L=0
+ Is=0
+ a=0
+ L_Z0=0
+ L_EL=0
+ L_F0=0E6
+ PkZ=50089.3049
.ends LPS5015-563_imp

*======================================================================
* SPICE Model generated by Coilcraft
* Coilcraft Part Number : LPS5015-683
* Inductance = 68uH
*======================================================================
* Model Parameters:
*   Valid Frequency Range = 0.1MHz-200MHz
*   Ambient Temperature = 25 degC
*   Inductor Frequency Model
*   Use model for Frequency Domain simulations
*======================================================================
.subckt LPS5015-683_freq port1 port2 PARAMS: Cpar=1.7pF Ind=68uH
X1 port1 port2 Model1A PARAMS:
+ R1=26
+ R2=1.45
+ C= {Cpar}
+ K1=0.00000006
+ K2=15.5
+ K3= {Ind}
+ K4=0.54
+ K5=0.00000997
+ L=0
+ Is=0
+ a=0
+ L_Z0=0
+ L_EL=0
+ L_F0=0E6
+ PkZ=57882.8724
.ends LPS5015-683_freq

*======================================================================
* SPICE Model generated by Coilcraft
* Coilcraft Part Number : LPS5015-683
* Inductance = 68uH
*======================================================================
* Model Parameters:
*   Valid Frequency Range = 0.1MHz-200MHz
*   Ambient Temperature = 25 degC
*   Inductor Impedance Model
*   Use model for Time Domain simulations
*======================================================================
.subckt LPS5015-683_imp port1 port2 PARAMS: Cpar=1.63pF Ind=68uH
X1 port1 port2 Model1D PARAMS:
+ R1=26
+ R2=1.45
+ C= {Cpar}
+ K1=0.00000006
+ K2=15.5
+ K3= {Ind}
+ K4=0.54
+ K5=0.00000997
+ L=0
+ Is=0
+ a=0
+ L_Z0=0
+ L_EL=0
+ L_F0=0E6
+ PkZ=57882.8724
.ends LPS5015-683_imp

*======================================================================
* SPICE Model generated by Coilcraft
* Coilcraft Part Number : LPS5015-104
* Inductance = 100uH
*======================================================================
* Model Parameters:
*   Valid Frequency Range = 0.1MHz-100MHz
*   Ambient Temperature = 25 degC
*   Inductor Frequency Model
*   Use model for Frequency Domain simulations
*======================================================================
.subckt LPS5015-104_freq port1 port2 PARAMS: Cpar=1.95pF Ind=100uH
X1 port1 port2 Model1A PARAMS:
+ R1=25
+ R2=1.95
+ C= {Cpar}
+ K1=0.00000006
+ K2=19
+ K3= {Ind}
+ K4=0.76
+ K5=0.00000996
+ L=0
+ Is=0
+ a=0
+ L_Z0=0
+ L_EL=0
+ L_F0=0E6
+ PkZ=62683.8728
.ends LPS5015-104_freq

*======================================================================
* SPICE Model generated by Coilcraft
* Coilcraft Part Number : LPS5015-104
* Inductance = 100uH
*======================================================================
* Model Parameters:
*   Valid Frequency Range = 0.1MHz-100MHz
*   Ambient Temperature = 25 degC
*   Inductor Impedance Model
*   Use model for Time Domain simulations
*======================================================================
.subckt LPS5015-104_imp port1 port2 PARAMS: Cpar=1.88pF Ind=100uH
X1 port1 port2 Model1D PARAMS:
+ R1=25
+ R2=1.95
+ C= {Cpar}
+ K1=0.00000006
+ K2=19
+ K3= {Ind}
+ K4=0.76
+ K5=0.00000996
+ L=0
+ Is=0
+ a=0
+ L_Z0=0
+ L_EL=0
+ L_F0=0E6
+ PkZ=62683.8728
.ends LPS5015-104_imp

*======================================================================
* SPICE Model generated by Coilcraft
* Coilcraft Part Number : LPS5015-124
* Inductance = 120uH
*======================================================================
* Model Parameters:
*   Valid Frequency Range = 0.1MHz-100MHz
*   Ambient Temperature = 25 degC
*   Inductor Frequency Model
*   Use model for Frequency Domain simulations
*======================================================================
.subckt LPS5015-124_freq port1 port2 PARAMS: Cpar=2.1pF Ind=120uH
X1 port1 port2 Model1A PARAMS:
+ R1=34
+ R2=2.5
+ C= {Cpar}
+ K1=0.00000006
+ K2=21
+ K3= {Ind}
+ K4=0.54
+ K5=0.00000994
+ L=0
+ Is=0
+ a=0
+ L_Z0=0
+ L_EL=0
+ L_F0=0E6
+ PkZ=64236.1267
.ends LPS5015-124_freq

*======================================================================
* SPICE Model generated by Coilcraft
* Coilcraft Part Number : LPS5015-124
* Inductance = 120uH
*======================================================================
* Model Parameters:
*   Valid Frequency Range = 0.1MHz-100MHz
*   Ambient Temperature = 25 degC
*   Inductor Impedance Model
*   Use model for Time Domain simulations
*======================================================================
.subckt LPS5015-124_imp port1 port2 PARAMS: Cpar=2.06pF Ind=120uH
X1 port1 port2 Model1D PARAMS:
+ R1=34
+ R2=2.5
+ C= {Cpar}
+ K1=0.00000006
+ K2=21
+ K3= {Ind}
+ K4=0.54
+ K5=0.00000994
+ L=0
+ Is=0
+ a=0
+ L_Z0=0
+ L_EL=0
+ L_F0=0E6
+ PkZ=64236.1267
.ends LPS5015-124_imp
