*======================================================================
* SPICE Model generated by Coilcraft
* Coilcraft Part Number : LPS6235-682
* Inductance = 6.8uH
*======================================================================
* Model Parameters:
*   Valid Frequency Range = 0.1MHz-60MHz
*   Ambient Temperature = 25 degC
*   Inductor Frequency Model
*   Use model for Frequency Domain simulations
*======================================================================
.subckt LPS6235-682_freq port1 port2 PARAMS: Cpar=1.93pF Ind=6.8uH
X1 port1 port2 Model1A PARAMS:
+ R1=200
+ R2=0.075
+ C= {Cpar}
+ K1=0.00009
+ K2=2.2
+ K3= {Ind}
+ K4=0.06
+ K5=0.00000985
+ L=0
+ Is=0
+ a=0
+ L_Z0=0
+ L_EL=0
+ L_F0=0E6
+ PkZ=7857.93799
.ends LPS6235-682_freq

*======================================================================
* SPICE Model generated by Coilcraft
* Coilcraft Part Number : LPS6235-682
* Inductance = 6.8uH
*======================================================================
* Model Parameters:
*   Valid Frequency Range = 0.1MHz-60MHz
*   Ambient Temperature = 25 degC
*   Inductor Impedance Model
*   Use model for Time Domain simulations
*======================================================================
.subckt LPS6235-682_imp port1 port2 PARAMS: Cpar=1.83pF Ind=6.8uH
X1 port1 port2 Model1D PARAMS:
+ R1=200
+ R2=0.075
+ C= {Cpar}
+ K1=0.00009
+ K2=2.2
+ K3= {Ind}
+ K4=0.06
+ K5=0.00000985
+ L=0
+ Is=0
+ a=0
+ L_Z0=0
+ L_EL=0
+ L_F0=0E6
+ PkZ=7857.93799
.ends LPS6235-682_imp

*======================================================================
* SPICE Model generated by Coilcraft
* Coilcraft Part Number : LPS6235-822
* Inductance = 8.2uH
*======================================================================
* Model Parameters:
*   Valid Frequency Range = 0.1MHz-50MHz
*   Ambient Temperature = 25 degC
*   Inductor Frequency Model
*   Use model for Frequency Domain simulations
*======================================================================
.subckt LPS6235-822_freq port1 port2 PARAMS: Cpar=2.53pF Ind=8.2uH
X1 port1 port2 Model1A PARAMS:
+ R1=178
+ R2=0.095
+ C= {Cpar}
+ K1=0.00018
+ K2=2.56
+ K3= {Ind}
+ K4=0.1
+ K5=0.00000985
+ L=0
+ Is=0
+ a=0
+ L_Z0=0
+ L_EL=0
+ L_F0=0E6
+ PkZ=8070.59795
.ends LPS6235-822_freq

*======================================================================
* SPICE Model generated by Coilcraft
* Coilcraft Part Number : LPS6235-822
* Inductance = 8.2uH
*======================================================================
* Model Parameters:
*   Valid Frequency Range = 0.1MHz-50MHz
*   Ambient Temperature = 25 degC
*   Inductor Impedance Model
*   Use model for Time Domain simulations
*======================================================================
.subckt LPS6235-822_imp port1 port2 PARAMS: Cpar=2.35pF Ind=8.2uH
X1 port1 port2 Model1D PARAMS:
+ R1=178
+ R2=0.095
+ C= {Cpar}
+ K1=0.00018
+ K2=2.56
+ K3= {Ind}
+ K4=0.1
+ K5=0.00000985
+ L=0
+ Is=0
+ a=0
+ L_Z0=0
+ L_EL=0
+ L_F0=0E6
+ PkZ=8070.59795
.ends LPS6235-822_imp

*======================================================================
* SPICE Model generated by Coilcraft
* Coilcraft Part Number : LPS6235-103
* Inductance = 10uH
*======================================================================
* Model Parameters:
*   Valid Frequency Range = 0.1MHz-40MHz
*   Ambient Temperature = 25 degC
*   Inductor Frequency Model
*   Use model for Frequency Domain simulations
*======================================================================
.subckt LPS6235-103_freq port1 port2 PARAMS: Cpar=2.85pF Ind=10uH
X1 port1 port2 Model1A PARAMS:
+ R1=115
+ R2=0.1
+ C= {Cpar}
+ K1=0.0001
+ K2=3.22
+ K3= {Ind}
+ K4=0.11
+ K5=0.00000988
+ L=0
+ Is=0
+ a=0
+ L_Z0=0
+ L_EL=0
+ L_F0=0E6
+ PkZ=10990.3672
.ends LPS6235-103_freq

*======================================================================
* SPICE Model generated by Coilcraft
* Coilcraft Part Number : LPS6235-103
* Inductance = 10uH
*======================================================================
* Model Parameters:
*   Valid Frequency Range = 0.1MHz-40MHz
*   Ambient Temperature = 25 degC
*   Inductor Impedance Model
*   Use model for Time Domain simulations
*======================================================================
.subckt LPS6235-103_imp port1 port2 PARAMS: Cpar=2.67pF Ind=10uH
X1 port1 port2 Model1D PARAMS:
+ R1=115
+ R2=0.1
+ C= {Cpar}
+ K1=0.0001
+ K2=3.22
+ K3= {Ind}
+ K4=0.11
+ K5=0.00000988
+ L=0
+ Is=0
+ a=0
+ L_Z0=0
+ L_EL=0
+ L_F0=0E6
+ PkZ=10990.3672
.ends LPS6235-103_imp

*======================================================================
* SPICE Model generated by Coilcraft
* Coilcraft Part Number : LPS6235-123
* Inductance = 12uH
*======================================================================
* Model Parameters:
*   Valid Frequency Range = 0.1MHz-40MHz
*   Ambient Temperature = 25 degC
*   Inductor Frequency Model
*   Use model for Frequency Domain simulations
*======================================================================
.subckt LPS6235-123_freq port1 port2 PARAMS: Cpar=3.24pF Ind=12uH
X1 port1 port2 Model1A PARAMS:
+ R1=75
+ R2=0.11
+ C= {Cpar}
+ K1=0.00018
+ K2=3.74
+ K3= {Ind}
+ K4=0.17
+ K5=0.00000992
+ L=0
+ Is=0
+ a=0
+ L_Z0=0
+ L_EL=0
+ L_F0=0E6
+ PkZ=13500.2365
.ends LPS6235-123_freq

*======================================================================
* SPICE Model generated by Coilcraft
* Coilcraft Part Number : LPS6235-123
* Inductance = 12uH
*======================================================================
* Model Parameters:
*   Valid Frequency Range = 0.1MHz-40MHz
*   Ambient Temperature = 25 degC
*   Inductor Impedance Model
*   Use model for Time Domain simulations
*======================================================================
.subckt LPS6235-123_imp port1 port2 PARAMS: Cpar=2.99pF Ind=12uH
X1 port1 port2 Model1D PARAMS:
+ R1=75
+ R2=0.11
+ C= {Cpar}
+ K1=0.00018
+ K2=3.74
+ K3= {Ind}
+ K4=0.17
+ K5=0.00000992
+ L=0
+ Is=0
+ a=0
+ L_Z0=0
+ L_EL=0
+ L_F0=0E6
+ PkZ=13500.2365
.ends LPS6235-123_imp

*======================================================================
* SPICE Model generated by Coilcraft
* Coilcraft Part Number : LPS6235-153
* Inductance = 15uH
*======================================================================
* Model Parameters:
*   Valid Frequency Range = 0.1MHz-30MHz
*   Ambient Temperature = 25 degC
*   Inductor Frequency Model
*   Use model for Frequency Domain simulations
*======================================================================
.subckt LPS6235-153_freq port1 port2 PARAMS: Cpar=3.79pF Ind=15uH
X1 port1 port2 Model1A PARAMS:
+ R1=50
+ R2=0.125
+ C= {Cpar}
+ K1=0.0003
+ K2=4.95
+ K3= {Ind}
+ K4=0.19
+ K5=0.00000992
+ L=0
+ Is=0
+ a=0
+ L_Z0=0
+ L_EL=0
+ L_F0=0E6
+ PkZ=17503.3291
.ends LPS6235-153_freq

*======================================================================
* SPICE Model generated by Coilcraft
* Coilcraft Part Number : LPS6235-153
* Inductance = 15uH
*======================================================================
* Model Parameters:
*   Valid Frequency Range = 0.1MHz-30MHz
*   Ambient Temperature = 25 degC
*   Inductor Impedance Model
*   Use model for Time Domain simulations
*======================================================================
.subckt LPS6235-153_imp port1 port2 PARAMS: Cpar=3.53pF Ind=15uH
X1 port1 port2 Model1D PARAMS:
+ R1=50
+ R2=0.125
+ C= {Cpar}
+ K1=0.0003
+ K2=4.95
+ K3= {Ind}
+ K4=0.19
+ K5=0.00000992
+ L=0
+ Is=0
+ a=0
+ L_Z0=0
+ L_EL=0
+ L_F0=0E6
+ PkZ=17503.3291
.ends LPS6235-153_imp

*======================================================================
* SPICE Model generated by Coilcraft
* Coilcraft Part Number : LPS6235-183
* Inductance = 18uH
*======================================================================
* Model Parameters:
*   Valid Frequency Range = 0.1MHz-30MHz
*   Ambient Temperature = 25 degC
*   Inductor Frequency Model
*   Use model for Frequency Domain simulations
*======================================================================
.subckt LPS6235-183_freq port1 port2 PARAMS: Cpar=3.06pF Ind=18uH
X1 port1 port2 Model1A PARAMS:
+ R1=65
+ R2=0.14
+ C= {Cpar}
+ K1=0.00022
+ K2=5.76
+ K3= {Ind}
+ K4=0.22
+ K5=0.00000992
+ L=0
+ Is=0
+ a=0
+ L_Z0=0
+ L_EL=0
+ L_F0=0E6
+ PkZ=20463.7153
.ends LPS6235-183_freq

*======================================================================
* SPICE Model generated by Coilcraft
* Coilcraft Part Number : LPS6235-183
* Inductance = 18uH
*======================================================================
* Model Parameters:
*   Valid Frequency Range = 0.1MHz-30MHz
*   Ambient Temperature = 25 degC
*   Inductor Impedance Model
*   Use model for Time Domain simulations
*======================================================================
.subckt LPS6235-183_imp port1 port2 PARAMS: Cpar=2.86pF Ind=18uH
X1 port1 port2 Model1D PARAMS:
+ R1=65
+ R2=0.14
+ C= {Cpar}
+ K1=0.00022
+ K2=5.76
+ K3= {Ind}
+ K4=0.22
+ K5=0.00000992
+ L=0
+ Is=0
+ a=0
+ L_Z0=0
+ L_EL=0
+ L_F0=0E6
+ PkZ=20463.7153
.ends LPS6235-183_imp

*======================================================================
* SPICE Model generated by Coilcraft
* Coilcraft Part Number : LPS6235-223
* Inductance = 22uH
*======================================================================
* Model Parameters:
*   Valid Frequency Range = 0.1MHz-30MHz
*   Ambient Temperature = 25 degC
*   Inductor Frequency Model
*   Use model for Frequency Domain simulations
*======================================================================
.subckt LPS6235-223_freq port1 port2 PARAMS: Cpar=3.32pF Ind=22uH
X1 port1 port2 Model1A PARAMS:
+ R1=45
+ R2=0.145
+ C= {Cpar}
+ K1=0.00026
+ K2=6.68
+ K3= {Ind}
+ K4=0.24
+ K5=0.00000992
+ L=0
+ Is=0
+ a=0
+ L_Z0=0
+ L_EL=0
+ L_F0=0E6
+ PkZ=24057.6921
.ends LPS6235-223_freq

*======================================================================
* SPICE Model generated by Coilcraft
* Coilcraft Part Number : LPS6235-223
* Inductance = 22uH
*======================================================================
* Model Parameters:
*   Valid Frequency Range = 0.1MHz-30MHz
*   Ambient Temperature = 25 degC
*   Inductor Impedance Model
*   Use model for Time Domain simulations
*======================================================================
.subckt LPS6235-223_imp port1 port2 PARAMS: Cpar=3.13pF Ind=22uH
X1 port1 port2 Model1D PARAMS:
+ R1=45
+ R2=0.145
+ C= {Cpar}
+ K1=0.00026
+ K2=6.68
+ K3= {Ind}
+ K4=0.24
+ K5=0.00000992
+ L=0
+ Is=0
+ a=0
+ L_Z0=0
+ L_EL=0
+ L_F0=0E6
+ PkZ=24057.6921
.ends LPS6235-223_imp

*======================================================================
* SPICE Model generated by Coilcraft
* Coilcraft Part Number : LPS6235-333
* Inductance = 33uH
*======================================================================
* Model Parameters:
*   Valid Frequency Range = 0.1MHz-30MHz
*   Ambient Temperature = 25 degC
*   Inductor Frequency Model
*   Use model for Frequency Domain simulations
*======================================================================
.subckt LPS6235-333_freq port1 port2 PARAMS: Cpar=3.61pF Ind=33uH
X1 port1 port2 Model1A PARAMS:
+ R1=14
+ R2=0.18
+ C= {Cpar}
+ K1=0.00028
+ K2=7.74
+ K3= {Ind}
+ K4=0.36
+ K5=0.00000992
+ L=0
+ Is=0
+ a=0
+ L_Z0=0
+ L_EL=0
+ L_F0=0E6
+ PkZ=28481.7175
.ends LPS6235-333_freq

*======================================================================
* SPICE Model generated by Coilcraft
* Coilcraft Part Number : LPS6235-333
* Inductance = 33uH
*======================================================================
* Model Parameters:
*   Valid Frequency Range = 0.1MHz-30MHz
*   Ambient Temperature = 25 degC
*   Inductor Impedance Model
*   Use model for Time Domain simulations
*======================================================================
.subckt LPS6235-333_imp port1 port2 PARAMS: Cpar=3.41pF Ind=33uH
X1 port1 port2 Model1D PARAMS:
+ R1=14
+ R2=0.18
+ C= {Cpar}
+ K1=0.00028
+ K2=7.74
+ K3= {Ind}
+ K4=0.36
+ K5=0.00000992
+ L=0
+ Is=0
+ a=0
+ L_Z0=0
+ L_EL=0
+ L_F0=0E6
+ PkZ=28481.7175
.ends LPS6235-333_imp

*======================================================================
* SPICE Model generated by Coilcraft
* Coilcraft Part Number : LPS6235-473
* Inductance = 47uH
*======================================================================
* Model Parameters:
*   Valid Frequency Range = 0.1MHz-30MHz
*   Ambient Temperature = 25 degC
*   Inductor Frequency Model
*   Use model for Frequency Domain simulations
*======================================================================
.subckt LPS6235-473_freq port1 port2 PARAMS: Cpar=4pF Ind=47uH
X1 port1 port2 Model1A PARAMS:
+ R1=13
+ R2=0.245
+ C= {Cpar}
+ K1=0.0014
+ K2=10.2
+ K3= {Ind}
+ K4=0.68
+ K5=0.0000098
+ L=0
+ Is=0
+ a=0
+ L_Z0=0
+ L_EL=0
+ L_F0=0E6
+ PkZ=33442.5141
.ends LPS6235-473_freq

*======================================================================
* SPICE Model generated by Coilcraft
* Coilcraft Part Number : LPS6235-473
* Inductance = 47uH
*======================================================================
* Model Parameters:
*   Valid Frequency Range = 0.1MHz-30MHz
*   Ambient Temperature = 25 degC
*   Inductor Impedance Model
*   Use model for Time Domain simulations
*======================================================================
.subckt LPS6235-473_imp port1 port2 PARAMS: Cpar=3.73pF Ind=47uH
X1 port1 port2 Model1D PARAMS:
+ R1=13
+ R2=0.245
+ C= {Cpar}
+ K1=0.0014
+ K2=10.2
+ K3= {Ind}
+ K4=0.68
+ K5=0.0000098
+ L=0
+ Is=0
+ a=0
+ L_Z0=0
+ L_EL=0
+ L_F0=0E6
+ PkZ=33442.5141
.ends LPS6235-473_imp

*======================================================================
* SPICE Model generated by Coilcraft
* Coilcraft Part Number : LPS6235-563
* Inductance = 56uH
*======================================================================
* Model Parameters:
*   Valid Frequency Range = 0.1MHz-30MHz
*   Ambient Temperature = 25 degC
*   Inductor Frequency Model
*   Use model for Frequency Domain simulations
*======================================================================
.subckt LPS6235-563_freq port1 port2 PARAMS: Cpar=3.92pF Ind=56uH
X1 port1 port2 Model1A PARAMS:
+ R1=12
+ R2=0.28
+ C= {Cpar}
+ K1=0.001
+ K2=12.4
+ K3= {Ind}
+ K4=0.88
+ K5=0.0000099
+ L=0
+ Is=0
+ a=0
+ L_Z0=0
+ L_EL=0
+ L_F0=0E6
+ PkZ=39523.6899
.ends LPS6235-563_freq

*======================================================================
* SPICE Model generated by Coilcraft
* Coilcraft Part Number : LPS6235-563
* Inductance = 56uH
*======================================================================
* Model Parameters:
*   Valid Frequency Range = 0.1MHz-30MHz
*   Ambient Temperature = 25 degC
*   Inductor Impedance Model
*   Use model for Time Domain simulations
*======================================================================
.subckt LPS6235-563_imp port1 port2 PARAMS: Cpar=3.63pF Ind=56uH
X1 port1 port2 Model1D PARAMS:
+ R1=12
+ R2=0.28
+ C= {Cpar}
+ K1=0.001
+ K2=12.4
+ K3= {Ind}
+ K4=0.88
+ K5=0.0000099
+ L=0
+ Is=0
+ a=0
+ L_Z0=0
+ L_EL=0
+ L_F0=0E6
+ PkZ=39523.6899
.ends LPS6235-563_imp

*======================================================================
* SPICE Model generated by Coilcraft
* Coilcraft Part Number : LPS6235-683
* Inductance = 68uH
*======================================================================
* Model Parameters:
*   Valid Frequency Range = 0.1MHz-30MHz
*   Ambient Temperature = 25 degC
*   Inductor Frequency Model
*   Use model for Frequency Domain simulations
*======================================================================
.subckt LPS6235-683_freq port1 port2 PARAMS: Cpar=3.91pF Ind=68uH
X1 port1 port2 Model1A PARAMS:
+ R1=14
+ R2=0.345
+ C= {Cpar}
+ K1=0.0004
+ K2=16.2
+ K3= {Ind}
+ K4=0.92
+ K5=0.00000999
+ L=0
+ Is=0
+ a=0
+ L_Z0=0
+ L_EL=0
+ L_F0=0E6
+ PkZ=49065.3822
.ends LPS6235-683_freq

*======================================================================
* SPICE Model generated by Coilcraft
* Coilcraft Part Number : LPS6235-683
* Inductance = 68uH
*======================================================================
* Model Parameters:
*   Valid Frequency Range = 0.1MHz-30MHz
*   Ambient Temperature = 25 degC
*   Inductor Impedance Model
*   Use model for Time Domain simulations
*======================================================================
.subckt LPS6235-683_imp port1 port2 PARAMS: Cpar=3.67pF Ind=68uH
X1 port1 port2 Model1D PARAMS:
+ R1=14
+ R2=0.345
+ C= {Cpar}
+ K1=0.0004
+ K2=16.2
+ K3= {Ind}
+ K4=0.92
+ K5=0.00000999
+ L=0
+ Is=0
+ a=0
+ L_Z0=0
+ L_EL=0
+ L_F0=0E6
+ PkZ=49065.3822
.ends LPS6235-683_imp

*======================================================================
* SPICE Model generated by Coilcraft
* Coilcraft Part Number : LPS6235-823
* Inductance = 82uH
*======================================================================
* Model Parameters:
*   Valid Frequency Range = 0.1MHz-20MHz
*   Ambient Temperature = 25 degC
*   Inductor Frequency Model
*   Use model for Frequency Domain simulations
*======================================================================
.subckt LPS6235-823_freq port1 port2 PARAMS: Cpar=3.13pF Ind=82uH
X1 port1 port2 Model1A PARAMS:
+ R1=20
+ R2=0.315
+ C= {Cpar}
+ K1=0.0004
+ K2=17
+ K3= {Ind}
+ K4=0.9
+ K5=0.00000997
+ L=0
+ Is=0
+ a=0
+ L_Z0=0
+ L_EL=0
+ L_F0=0E6
+ PkZ=51871.6636
.ends LPS6235-823_freq

*======================================================================
* SPICE Model generated by Coilcraft
* Coilcraft Part Number : LPS6235-823
* Inductance = 82uH
*======================================================================
* Model Parameters:
*   Valid Frequency Range = 0.1MHz-20MHz
*   Ambient Temperature = 25 degC
*   Inductor Impedance Model
*   Use model for Time Domain simulations
*======================================================================
.subckt LPS6235-823_imp port1 port2 PARAMS: Cpar=2.97pF Ind=82uH
X1 port1 port2 Model1D PARAMS:
+ R1=20
+ R2=0.315
+ C= {Cpar}
+ K1=0.0004
+ K2=17
+ K3= {Ind}
+ K4=0.9
+ K5=0.00000997
+ L=0
+ Is=0
+ a=0
+ L_Z0=0
+ L_EL=0
+ L_F0=0E6
+ PkZ=51871.6636
.ends LPS6235-823_imp

*======================================================================
* SPICE Model generated by Coilcraft
* Coilcraft Part Number : LPS6235-104
* Inductance = 100uH
*======================================================================
* Model Parameters:
*   Valid Frequency Range = 0.1MHz-20MHz
*   Ambient Temperature = 25 degC
*   Inductor Frequency Model
*   Use model for Frequency Domain simulations
*======================================================================
.subckt LPS6235-104_freq port1 port2 PARAMS: Cpar=2.86pF Ind=100uH
X1 port1 port2 Model1A PARAMS:
+ R1=20
+ R2=0.375
+ C= {Cpar}
+ K1=0.00075
+ K2=20.2
+ K3= {Ind}
+ K4=0.92
+ K5=0.00000994
+ L=0
+ Is=0
+ a=0
+ L_Z0=0
+ L_EL=0
+ L_F0=0E6
+ PkZ=60123.5829
.ends LPS6235-104_freq

*======================================================================
* SPICE Model generated by Coilcraft
* Coilcraft Part Number : LPS6235-104
* Inductance = 100uH
*======================================================================
* Model Parameters:
*   Valid Frequency Range = 0.1MHz-20MHz
*   Ambient Temperature = 25 degC
*   Inductor Impedance Model
*   Use model for Time Domain simulations
*======================================================================
.subckt LPS6235-104_imp port1 port2 PARAMS: Cpar=2.74pF Ind=100uH
X1 port1 port2 Model1D PARAMS:
+ R1=20
+ R2=0.375
+ C= {Cpar}
+ K1=0.00075
+ K2=20.2
+ K3= {Ind}
+ K4=0.92
+ K5=0.00000994
+ L=0
+ Is=0
+ a=0
+ L_Z0=0
+ L_EL=0
+ L_F0=0E6
+ PkZ=60123.5829
.ends LPS6235-104_imp

*======================================================================
* SPICE Model generated by Coilcraft
* Coilcraft Part Number : LPS6235-124
* Inductance = 120uH
*======================================================================
* Model Parameters:
*   Valid Frequency Range = 0.1MHz-20MHz
*   Ambient Temperature = 25 degC
*   Inductor Frequency Model
*   Use model for Frequency Domain simulations
*======================================================================
.subckt LPS6235-124_freq port1 port2 PARAMS: Cpar=3.21pF Ind=120uH
X1 port1 port2 Model1A PARAMS:
+ R1=22
+ R2=0.435
+ C= {Cpar}
+ K1=0.0009
+ K2=26.6
+ K3= {Ind}
+ K4=0.94
+ K5=0.00001
+ L=0
+ Is=0
+ a=0
+ L_Z0=0
+ L_EL=0
+ L_F0=0E6
+ PkZ=72634.1475
.ends LPS6235-124_freq

*======================================================================
* SPICE Model generated by Coilcraft
* Coilcraft Part Number : LPS6235-124
* Inductance = 120uH
*======================================================================
* Model Parameters:
*   Valid Frequency Range = 0.1MHz-20MHz
*   Ambient Temperature = 25 degC
*   Inductor Impedance Model
*   Use model for Time Domain simulations
*======================================================================
.subckt LPS6235-124_imp port1 port2 PARAMS: Cpar=3.10pF Ind=120uH
X1 port1 port2 Model1D PARAMS:
+ R1=22
+ R2=0.435
+ C= {Cpar}
+ K1=0.0009
+ K2=26.6
+ K3= {Ind}
+ K4=0.94
+ K5=0.00001
+ L=0
+ Is=0
+ a=0
+ L_Z0=0
+ L_EL=0
+ L_F0=0E6
+ PkZ=72634.1475
.ends LPS6235-124_imp

*======================================================================
* SPICE Model generated by Coilcraft
* Coilcraft Part Number : LPS6235-154
* Inductance = 150uH
*======================================================================
* Model Parameters:
*   Valid Frequency Range = 0.1MHz-10MHz
*   Ambient Temperature = 25 degC
*   Inductor Frequency Model
*   Use model for Frequency Domain simulations
*======================================================================
.subckt LPS6235-154_freq port1 port2 PARAMS: Cpar=3.85pF Ind=150uH
X1 port1 port2 Model1A PARAMS:
+ R1=18
+ R2=0.535
+ C= {Cpar}
+ K1=0.0019
+ K2=30
+ K3= {Ind}
+ K4=1.2
+ K5=0.00001
+ L=0
+ Is=0
+ a=0
+ L_Z0=0
+ L_EL=0
+ L_F0=0E6
+ PkZ=74340.9462
.ends LPS6235-154_freq

*======================================================================
* SPICE Model generated by Coilcraft
* Coilcraft Part Number : LPS6235-154
* Inductance = 150uH
*======================================================================
* Model Parameters:
*   Valid Frequency Range = 0.1MHz-10MHz
*   Ambient Temperature = 25 degC
*   Inductor Impedance Model
*   Use model for Time Domain simulations
*======================================================================
.subckt LPS6235-154_imp port1 port2 PARAMS: Cpar=3.72pF Ind=150uH
X1 port1 port2 Model1D PARAMS:
+ R1=18
+ R2=0.535
+ C= {Cpar}
+ K1=0.0019
+ K2=30
+ K3= {Ind}
+ K4=1.2
+ K5=0.00001
+ L=0
+ Is=0
+ a=0
+ L_Z0=0
+ L_EL=0
+ L_F0=0E6
+ PkZ=74340.9462
.ends LPS6235-154_imp

*======================================================================
* SPICE Model generated by Coilcraft
* Coilcraft Part Number : LPS6235-224
* Inductance = 220uH
*======================================================================
* Model Parameters:
*   Valid Frequency Range = 0.1MHz-10MHz
*   Ambient Temperature = 25 degC
*   Inductor Frequency Model
*   Use model for Frequency Domain simulations
*======================================================================
.subckt LPS6235-224_freq port1 port2 PARAMS: Cpar=3.64pF Ind=220uH
X1 port1 port2 Model1A PARAMS:
+ R1=24
+ R2=0.72
+ C= {Cpar}
+ K1=0.0012
+ K2=41
+ K3= {Ind}
+ K4=1.8
+ K5=0.0000102
+ L=0
+ Is=0
+ a=0
+ L_Z0=0
+ L_EL=0
+ L_F0=0E6
+ PkZ=93825.5103
.ends LPS6235-224_freq

*======================================================================
* SPICE Model generated by Coilcraft
* Coilcraft Part Number : LPS6235-224
* Inductance = 220uH
*======================================================================
* Model Parameters:
*   Valid Frequency Range = 0.1MHz-10MHz
*   Ambient Temperature = 25 degC
*   Inductor Impedance Model
*   Use model for Time Domain simulations
*======================================================================
.subckt LPS6235-224_imp port1 port2 PARAMS: Cpar=3.52pF Ind=220uH
X1 port1 port2 Model1D PARAMS:
+ R1=24
+ R2=0.72
+ C= {Cpar}
+ K1=0.0012
+ K2=41
+ K3= {Ind}
+ K4=1.8
+ K5=0.0000102
+ L=0
+ Is=0
+ a=0
+ L_Z0=0
+ L_EL=0
+ L_F0=0E6
+ PkZ=93825.5103
.ends LPS6235-224_imp

*======================================================================
* SPICE Model generated by Coilcraft
* Coilcraft Part Number : LPS6235-334
* Inductance = 330uH
*======================================================================
* Model Parameters:
*   Valid Frequency Range = 0.1MHz-6MHz
*   Ambient Temperature = 25 degC
*   Inductor Frequency Model
*   Use model for Frequency Domain simulations
*======================================================================
.subckt LPS6235-334_freq port1 port2 PARAMS: Cpar=4.19pF Ind=330uH
X1 port1 port2 Model1A PARAMS:
+ R1=100
+ R2=1.02
+ C= {Cpar}
+ K1=0.0006
+ K2=67
+ K3= {Ind}
+ K4=2.5
+ K5=0.0000106
+ L=0
+ Is=0
+ a=0
+ L_Z0=0
+ L_EL=0
+ L_F0=0E6
+ PkZ=117851.033
.ends LPS6235-334_freq

*======================================================================
* SPICE Model generated by Coilcraft
* Coilcraft Part Number : LPS6235-334
* Inductance = 330uH
*======================================================================
* Model Parameters:
*   Valid Frequency Range = 0.1MHz-6MHz
*   Ambient Temperature = 25 degC
*   Inductor Impedance Model
*   Use model for Time Domain simulations
*======================================================================
.subckt LPS6235-334_imp port1 port2 PARAMS: Cpar=4.07pF Ind=330uH
X1 port1 port2 Model1D PARAMS:
+ R1=100
+ R2=1.02
+ C= {Cpar}
+ K1=0.0006
+ K2=67
+ K3= {Ind}
+ K4=2.5
+ K5=0.0000106
+ L=0
+ Is=0
+ a=0
+ L_Z0=0
+ L_EL=0
+ L_F0=0E6
+ PkZ=117851.033
.ends LPS6235-334_imp

*======================================================================
* SPICE Model generated by Coilcraft
* Coilcraft Part Number : LPS6235-474
* Inductance = 470uH
*======================================================================
* Model Parameters:
*   Valid Frequency Range = 0.1MHz-5MHz
*   Ambient Temperature = 25 degC
*   Inductor Frequency Model
*   Use model for Frequency Domain simulations
*======================================================================
.subckt LPS6235-474_freq port1 port2 PARAMS: Cpar=5.05pF Ind=470uH
X1 port1 port2 Model1A PARAMS:
+ R1=130
+ R2=1.58
+ C= {Cpar}
+ K1=0.0004
+ K2=96
+ K3= {Ind}
+ K4=2.8
+ K5=0.0000115
+ L=0
+ Is=0
+ a=0
+ L_Z0=0
+ L_EL=0
+ L_F0=0E6
+ PkZ=139524.765
.ends LPS6235-474_freq

*======================================================================
* SPICE Model generated by Coilcraft
* Coilcraft Part Number : LPS6235-474
* Inductance = 470uH
*======================================================================
* Model Parameters:
*   Valid Frequency Range = 0.1MHz-5MHz
*   Ambient Temperature = 25 degC
*   Inductor Impedance Model
*   Use model for Time Domain simulations
*======================================================================
.subckt LPS6235-474_imp port1 port2 PARAMS: Cpar=4.94pF Ind=470uH
X1 port1 port2 Model1D PARAMS:
+ R1=130
+ R2=1.58
+ C= {Cpar}
+ K1=0.0004
+ K2=96
+ K3= {Ind}
+ K4=2.8
+ K5=0.0000115
+ L=0
+ Is=0
+ a=0
+ L_Z0=0
+ L_EL=0
+ L_F0=0E6
+ PkZ=139524.765
.ends LPS6235-474_imp

*======================================================================
* SPICE Model generated by Coilcraft
* Coilcraft Part Number : LPS6235-564
* Inductance = 560uH
*======================================================================
* Model Parameters:
*   Valid Frequency Range = 0.1MHz-4MHz
*   Ambient Temperature = 25 degC
*   Inductor Frequency Model
*   Use model for Frequency Domain simulations
*======================================================================
.subckt LPS6235-564_freq port1 port2 PARAMS: Cpar=5.18pF Ind=560uH
X1 port1 port2 Model1A PARAMS:
+ R1=70
+ R2=1.75
+ C= {Cpar}
+ K1=0.0016
+ K2=102
+ K3= {Ind}
+ K4=3.2
+ K5=0.0000119
+ L=0
+ Is=0
+ a=0
+ L_Z0=0
+ L_EL=0
+ L_F0=0E6
+ PkZ=157209.515
.ends LPS6235-564_freq

*======================================================================
* SPICE Model generated by Coilcraft
* Coilcraft Part Number : LPS6235-564
* Inductance = 560uH
*======================================================================
* Model Parameters:
*   Valid Frequency Range = 0.1MHz-4MHz
*   Ambient Temperature = 25 degC
*   Inductor Impedance Model
*   Use model for Time Domain simulations
*======================================================================
.subckt LPS6235-564_imp port1 port2 PARAMS: Cpar=5.07pF Ind=560uH
X1 port1 port2 Model1D PARAMS:
+ R1=70
+ R2=1.75
+ C= {Cpar}
+ K1=0.0016
+ K2=102
+ K3= {Ind}
+ K4=3.2
+ K5=0.0000119
+ L=0
+ Is=0
+ a=0
+ L_Z0=0
+ L_EL=0
+ L_F0=0E6
+ PkZ=157209.515
.ends LPS6235-564_imp

*======================================================================
* SPICE Model generated by Coilcraft
* Coilcraft Part Number : LPS6235-684
* Inductance = 680uH