*======================================================================
* SPICE Model generated by Coilcraft
* Coilcraft Part Number : LPS6225-682
* Inductance = 6.8uH
*======================================================================
* Model Parameters:
*   Valid Frequency Range = 0.1MHz-500MHz
*   Ambient Temperature = 25 degC
*   Inductor Frequency Model
*   Use model for Frequency Domain simulations
*======================================================================
.subckt LPS6225-682_freq port1 port2 PARAMS: Cpar=2.2pF Ind=6.8uH
X1 port1 port2 Model1A PARAMS:
+ R1=25
+ R2=0.095
+ C= {Cpar}
+ K1=0.00000006
+ K2=1.5
+ K3= {Ind}
+ K4=0.05
+ K5=0.0000099
+ L=0
+ Is=0
+ a=0
+ L_Z0=0
+ L_EL=0
+ L_F0=0E6
+ PkZ=8991.21491
.ends LPS6225-682_freq

*======================================================================
* SPICE Model generated by Coilcraft
* Coilcraft Part Number : LPS6225-682
* Inductance = 6.8uH
*======================================================================
* Model Parameters:
*   Valid Frequency Range = 0.1MHz-500MHz
*   Ambient Temperature = 25 degC
*   Inductor Impedance Model
*   Use model for Time Domain simulations
*======================================================================
.subckt LPS6225-682_imp port1 port2 PARAMS: Cpar=2.10pF Ind=6.8uH
X1 port1 port2 Model1D PARAMS:
+ R1=25
+ R2=0.095
+ C= {Cpar}
+ K1=0.00000006
+ K2=1.5
+ K3= {Ind}
+ K4=0.05
+ K5=0.0000099
+ L=0
+ Is=0
+ a=0
+ L_Z0=0
+ L_EL=0
+ L_F0=0E6
+ PkZ=8991.21491
.ends LPS6225-682_imp

*======================================================================
* SPICE Model generated by Coilcraft
* Coilcraft Part Number : LPS6225-103
* Inductance = 10uH
*======================================================================
* Model Parameters:
*   Valid Frequency Range = 0.1MHz-500MHz
*   Ambient Temperature = 25 degC
*   Inductor Frequency Model
*   Use model for Frequency Domain simulations
*======================================================================
.subckt LPS6225-103_freq port1 port2 PARAMS: Cpar=2.3pF Ind=10uH
X1 port1 port2 Model1A PARAMS:
+ R1=18
+ R2=0.105
+ C= {Cpar}
+ K1=0.0002
+ K2=2.7
+ K3= {Ind}
+ K4=0.13
+ K5=0.00000987
+ L=0
+ Is=0
+ a=0
+ L_Z0=0
+ L_EL=0
+ L_F0=0E6
+ PkZ=14745.8277
.ends LPS6225-103_freq

*======================================================================
* SPICE Model generated by Coilcraft
* Coilcraft Part Number : LPS6225-103
* Inductance = 10uH
*======================================================================
* Model Parameters:
*   Valid Frequency Range = 0.1MHz-500MHz
*   Ambient Temperature = 25 degC
*   Inductor Impedance Model
*   Use model for Time Domain simulations
*======================================================================
.subckt LPS6225-103_imp port1 port2 PARAMS: Cpar=2.13pF Ind=10uH
X1 port1 port2 Model1D PARAMS:
+ R1=18
+ R2=0.105
+ C= {Cpar}
+ K1=0.0002
+ K2=2.7
+ K3= {Ind}
+ K4=0.13
+ K5=0.00000987
+ L=0
+ Is=0
+ a=0
+ L_Z0=0
+ L_EL=0
+ L_F0=0E6
+ PkZ=14745.8277
.ends LPS6225-103_imp

*======================================================================
* SPICE Model generated by Coilcraft
* Coilcraft Part Number : LPS6225-153
* Inductance = 15uH
*======================================================================
* Model Parameters:
*   Valid Frequency Range = 0.1MHz-100MHz
*   Ambient Temperature = 25 degC
*   Inductor Frequency Model
*   Use model for Frequency Domain simulations
*======================================================================
.subckt LPS6225-153_freq port1 port2 PARAMS: Cpar=2.5pF Ind=15uH
X1 port1 port2 Model1A PARAMS:
+ R1=30
+ R2=0.135
+ C= {Cpar}
+ K1=0.00033
+ K2=4.5
+ K3= {Ind}
+ K4=0.14
+ K5=0.0000098
+ L=0
+ Is=0
+ a=0
+ L_Z0=0
+ L_EL=0
+ L_F0=0E6
+ PkZ=20581.7746
.ends LPS6225-153_freq

*======================================================================
* SPICE Model generated by Coilcraft
* Coilcraft Part Number : LPS6225-153
* Inductance = 15uH
*======================================================================
* Model Parameters:
*   Valid Frequency Range = 0.1MHz-100MHz
*   Ambient Temperature = 25 degC
*   Inductor Impedance Model
*   Use model for Time Domain simulations
*======================================================================
.subckt LPS6225-153_imp port1 port2 PARAMS: Cpar=2.37pF Ind=15uH
X1 port1 port2 Model1D PARAMS:
+ R1=30
+ R2=0.135
+ C= {Cpar}
+ K1=0.00033
+ K2=4.5
+ K3= {Ind}
+ K4=0.14
+ K5=0.0000098
+ L=0
+ Is=0
+ a=0
+ L_Z0=0
+ L_EL=0
+ L_F0=0E6
+ PkZ=20581.7746
.ends LPS6225-153_imp

*======================================================================
* SPICE Model generated by Coilcraft
* Coilcraft Part Number : LPS6225-223
* Inductance = 22uH
*======================================================================
* Model Parameters:
*   Valid Frequency Range = 0.1MHz-100MHz
*   Ambient Temperature = 25 degC
*   Inductor Frequency Model
*   Use model for Frequency Domain simulations
*======================================================================
.subckt LPS6225-223_freq port1 port2 PARAMS: Cpar=4.1pF Ind=22uH
X1 port1 port2 Model1A PARAMS:
+ R1=13
+ R2=0.175
+ C= {Cpar}
+ K1=0.000425
+ K2=7.2
+ K3= {Ind}
+ K4=0.17
+ K5=0.00000985
+ L=0
+ Is=0
+ a=0
+ L_Z0=0
+ L_EL=0
+ L_F0=0E6
+ PkZ=27433.7708
.ends LPS6225-223_freq

*======================================================================
* SPICE Model generated by Coilcraft
* Coilcraft Part Number : LPS6225-223
* Inductance = 22uH
*======================================================================
* Model Parameters:
*   Valid Frequency Range = 0.1MHz-100MHz
*   Ambient Temperature = 25 degC
*   Inductor Impedance Model
*   Use model for Time Domain simulations
*======================================================================
.subckt LPS6225-223_imp port1 port2 PARAMS: Cpar=3.94pF Ind=22uH
X1 port1 port2 Model1D PARAMS:
+ R1=13
+ R2=0.175
+ C= {Cpar}
+ K1=0.000425
+ K2=7.2
+ K3= {Ind}
+ K4=0.17
+ K5=0.00000985
+ L=0
+ Is=0
+ a=0
+ L_Z0=0
+ L_EL=0
+ L_F0=0E6
+ PkZ=27433.7708
.ends LPS6225-223_imp

*======================================================================
* SPICE Model generated by Coilcraft
* Coilcraft Part Number : LPS6225-333
* Inductance = 33uH
*======================================================================
* Model Parameters:
*   Valid Frequency Range = 0.1MHz-100MHz
*   Ambient Temperature = 25 degC
*   Inductor Frequency Model
*   Use model for Frequency Domain simulations
*======================================================================
.subckt LPS6225-333_freq port1 port2 PARAMS: Cpar=3.05pF Ind=33uH
X1 port1 port2 Model1A PARAMS:
+ R1=20
+ R2=0.26
+ C= {Cpar}
+ K1=0.00047
+ K2=10
+ K3= {Ind}
+ K4=0.24
+ K5=0.00000986
+ L=0
+ Is=0
+ a=0
+ L_Z0=0
+ L_EL=0
+ L_F0=0E6
+ PkZ=37073.8668
.ends LPS6225-333_freq

*======================================================================
* SPICE Model generated by Coilcraft
* Coilcraft Part Number : LPS6225-333
* Inductance = 33uH
*======================================================================
* Model Parameters:
*   Valid Frequency Range = 0.1MHz-100MHz
*   Ambient Temperature = 25 degC
*   Inductor Impedance Model
*   Use model for Time Domain simulations
*======================================================================
.subckt LPS6225-333_imp port1 port2 PARAMS: Cpar=2.94pF Ind=33uH
X1 port1 port2 Model1D PARAMS:
+ R1=20
+ R2=0.26
+ C= {Cpar}
+ K1=0.00047
+ K2=10
+ K3= {Ind}
+ K4=0.24
+ K5=0.00000986
+ L=0
+ Is=0
+ a=0
+ L_Z0=0
+ L_EL=0
+ L_F0=0E6
+ PkZ=37073.8668
.ends LPS6225-333_imp

*======================================================================
* SPICE Model generated by Coilcraft
* Coilcraft Part Number : LPS6225-473
* Inductance = 47uH
*======================================================================
* Model Parameters:
*   Valid Frequency Range = 0.1MHz-100MHz
*   Ambient Temperature = 25 degC
*   Inductor Frequency Model
*   Use model for Frequency Domain simulations
*======================================================================
.subckt LPS6225-473_freq port1 port2 PARAMS: Cpar=3pF Ind=47uH
X1 port1 port2 Model1A PARAMS:
+ R1=20
+ R2=0.36
+ C= {Cpar}
+ K1=0.00065
+ K2=13.5
+ K3= {Ind}
+ K4=0.4
+ K5=0.0000099
+ L=0
+ Is=0
+ a=0
+ L_Z0=0
+ L_EL=0
+ L_F0=0E6
+ PkZ=46487.0679
.ends LPS6225-473_freq

*======================================================================
* SPICE Model generated by Coilcraft
* Coilcraft Part Number : LPS6225-473
* Inductance = 47uH
*======================================================================
* Model Parameters:
*   Valid Frequency Range = 0.1MHz-100MHz
*   Ambient Temperature = 25 degC
*   Inductor Impedance Model
*   Use model for Time Domain simulations
*======================================================================
.subckt LPS6225-473_imp port1 port2 PARAMS: Cpar=2.88pF Ind=47uH
X1 port1 port2 Model1D PARAMS:
+ R1=20
+ R2=0.36
+ C= {Cpar}
+ K1=0.00065
+ K2=13.5
+ K3= {Ind}
+ K4=0.4
+ K5=0.0000099
+ L=0
+ Is=0
+ a=0
+ L_Z0=0
+ L_EL=0
+ L_F0=0E6
+ PkZ=46487.0679
.ends LPS6225-473_imp

*======================================================================
* SPICE Model generated by Coilcraft
* Coilcraft Part Number : LPS6225-683
* Inductance = 68uH
*======================================================================
* Model Parameters:
*   Valid Frequency Range = 0.1MHz-100MHz
*   Ambient Temperature = 25 degC
*   Inductor Frequency Model
*   Use model for Frequency Domain simulations
*======================================================================
.subckt LPS6225-683_freq port1 port2 PARAMS: Cpar=2.45pF Ind=68uH
X1 port1 port2 Model1A PARAMS:
+ R1=30
+ R2=0.42
+ C= {Cpar}
+ K1=0.000444
+ K2=17
+ K3= {Ind}
+ K4=0.84
+ K5=0.00000996
+ L=0
+ Is=0
+ a=0
+ L_Z0=0
+ L_EL=0
+ L_F0=0E6
+ PkZ=56474.7856
.ends LPS6225-683_freq

*======================================================================
* SPICE Model generated by Coilcraft
* Coilcraft Part Number : LPS6225-683
* Inductance = 68uH
*======================================================================
* Model Parameters:
*   Valid Frequency Range = 0.1MHz-100MHz
*   Ambient Temperature = 25 degC
*   Inductor Impedance Model
*   Use model for Time Domain simulations
*======================================================================
.subckt LPS6225-683_imp port1 port2 PARAMS: Cpar=2.30pF Ind=68uH
X1 port1 port2 Model1D PARAMS:
+ R1=30
+ R2=0.42
+ C= {Cpar}
+ K1=0.000444
+ K2=17
+ K3= {Ind}
+ K4=0.84
+ K5=0.00000996
+ L=0
+ Is=0
+ a=0
+ L_Z0=0
+ L_EL=0
+ L_F0=0E6
+ PkZ=56474.7856
.ends LPS6225-683_imp

*======================================================================
* SPICE Model generated by Coilcraft
* Coilcraft Part Number : LPS6225-104
* Inductance = 100uH
*======================================================================
* Model Parameters:
*   Valid Frequency Range = 0.1MHz-100MHz
*   Ambient Temperature = 25 degC
*   Inductor Frequency Model
*   Use model for Frequency Domain simulations
*======================================================================
.subckt LPS6225-104_freq port1 port2 PARAMS: Cpar=3.05pF Ind=100uH
X1 port1 port2 Model1A PARAMS:
+ R1=20
+ R2=0.61
+ C= {Cpar}
+ K1=0.00065
+ K2=26
+ K3= {Ind}
+ K4=0.67
+ K5=0.00001
+ L=0
+ Is=0
+ a=0
+ L_Z0=0
+ L_EL=0
+ L_F0=0E6
+ PkZ=74994.2181
.ends LPS6225-104_freq

*======================================================================
* SPICE Model generated by Coilcraft
* Coilcraft Part Number : LPS6225-104
* Inductance = 100uH
*======================================================================
* Model Parameters:
*   Valid Frequency Range = 0.1MHz-100MHz
*   Ambient Temperature = 25 degC
*   Inductor Impedance Model
*   Use model for Time Domain simulations
*======================================================================
.subckt LPS6225-104_imp port1 port2 PARAMS: Cpar=2.96pF Ind=100uH
X1 port1 port2 Model1D PARAMS:
+ R1=20
+ R2=0.61
+ C= {Cpar}
+ K1=0.00065
+ K2=26
+ K3= {Ind}
+ K4=0.67
+ K5=0.00001
+ L=0
+ Is=0
+ a=0
+ L_Z0=0
+ L_EL=0
+ L_F0=0E6
+ PkZ=74994.2181
.ends LPS6225-104_imp

*======================================================================
* SPICE Model generated by Coilcraft
* Coilcraft Part Number : LPS6225-124
* Inductance = 120uH
*======================================================================
* Model Parameters:
*   Valid Frequency Range = 0.1MHz-100MHz
*   Ambient Temperature = 25 degC
*   Inductor Frequency Model
*   Use model for Frequency Domain simulations
*======================================================================
.subckt LPS6225-124_freq port1 port2 PARAMS: Cpar=3.2pF Ind=120uH
X1 port1 port2 Model1A PARAMS:
+ R1=15
+ R2=0.75
+ C= {Cpar}
+ K1=0.00035
+ K2=28
+ K3= {Ind}
+ K4=0.97
+ K5=0.0000101
+ L=0
+ Is=0
+ a=0
+ L_Z0=0
+ L_EL=0
+ L_F0=0E6
+ PkZ=77753.107
.ends LPS6225-124_freq

*======================================================================
* SPICE Model generated by Coilcraft
* Coilcraft Part Number : LPS6225-124
* Inductance = 120uH
*======================================================================
* Model Parameters:
*   Valid Frequency Range = 0.1MHz-100MHz
*   Ambient Temperature = 25 degC
*   Inductor Impedance Model
*   Use model for Time Domain simulations
*======================================================================
.subckt LPS6225-124_imp port1 port2 PARAMS: Cpar=3.09pF Ind=120uH
X1 port1 port2 Model1D PARAMS:
+ R1=15
+ R2=0.75
+ C= {Cpar}
+ K1=0.00035
+ K2=28
+ K3= {Ind}
+ K4=0.97
+ K5=0.0000101
+ L=0
+ Is=0
+ a=0
+ L_Z0=0
+ L_EL=0
+ L_F0=0E6
+ PkZ=77753.107
.ends LPS6225-124_imp

*======================================================================
* SPICE Model generated by Coilcraft
* Coilcraft Part Number : LPS6225-154
* Inductance = 150uH
*======================================================================
* Model Parameters:
*   Valid Frequency Range = 0.1MHz-100MHz
*   Ambient Temperature = 25 degC
*   Inductor Frequency Model
*   Use model for Frequency Domain simulations
*======================================================================
.subckt LPS6225-154_freq port1 port2 PARAMS: Cpar=3.6pF Ind=150uH
X1 port1 port2 Model1A PARAMS:
+ R1=30
+ R2=0.92
+ C= {Cpar}
+ K1=0.00015
+ K2=38
+ K3= {Ind}
+ K4=1.1
+ K5=0.0000102
+ L=0
+ Is=0
+ a=0
+ L_Z0=0
+ L_EL=0
+ L_F0=0E6
+ PkZ=93203.9702
.ends LPS6225-154_freq

*======================================================================
* SPICE Model generated by Coilcraft
* Coilcraft Part Number : LPS6225-154
* Inductance = 150uH
*======================================================================
* Model Parameters:
*   Valid Frequency Range = 0.1MHz-100MHz
*   Ambient Temperature = 25 degC
*   Inductor Impedance Model
*   Use model for Time Domain simulations
*======================================================================
.subckt LPS6225-154_imp port1 port2 PARAMS: Cpar=3.49pF Ind=150uH
X1 port1 port2 Model1D PARAMS:
+ R1=30
+ R2=0.92
+ C= {Cpar}
+ K1=0.00015
+ K2=38
+ K3= {Ind}
+ K4=1.1
+ K5=0.0000102
+ L=0
+ Is=0
+ a=0
+ L_Z0=0
+ L_EL=0
+ L_F0=0E6
+ PkZ=93203.9702
.ends LPS6225-154_imp

*======================================================================
* SPICE Model generated by Coilcraft
* Coilcraft Part Number : LPS6225-224
* Inductance = 220uH
*======================================================================
* Model Parameters:
*   Valid Frequency Range = 0.1MHz-100MHz
*   Ambient Temperature = 25 degC
*   Inductor Frequency Model
*   Use model for Frequency Domain simulations
*======================================================================
.subckt LPS6225-224_freq port1 port2 PARAMS: Cpar=3.6pF Ind=220uH
X1 port1 port2 Model1A PARAMS:
+ R1=26
+ R2=1.3
+ C= {Cpar}
+ K1=0.00075
+ K2=45
+ K3= {Ind}
+ K4=2.5
+ K5=0.0000102
+ L=0
+ Is=0
+ a=0
+ L_Z0=0
+ L_EL=0
+ L_F0=0E6
+ PkZ=102966.175
.ends LPS6225-224_freq

*======================================================================
* SPICE Model generated by Coilcraft
* Coilcraft Part Number : LPS6225-224
* Inductance = 220uH
*======================================================================
* Model Parameters:
*   Valid Frequency Range = 0.1MHz-100MHz
*   Ambient Temperature = 25 degC
*   Inductor Impedance Model
*   Use model for Time Domain simulations
*======================================================================
.subckt LPS6225-224_imp port1 port2 PARAMS: Cpar=3.43pF Ind=220uH
X1 port1 port2 Model1D PARAMS:
+ R1=26
+ R2=1.3
+ C= {Cpar}
+ K1=0.00075
+ K2=45
+ K3= {Ind}
+ K4=2.5
+ K5=0.0000102
+ L=0
+ Is=0
+ a=0
+ L_Z0=0
+ L_EL=0
+ L_F0=0E6
+ PkZ=102966.175
.ends LPS6225-224_imp

*======================================================================
* SPICE Model generated by Coilcraft
* Coilcraft Part Number : LPS6225-334
* Inductance = 330uH
*======================================================================
* Model Parameters:
*   Valid Frequency Range = 0.1MHz-80MHz
*   Ambient Temperature = 25 degC
*   Inductor Frequency Model
*   Use model for Frequency Domain simulations
*======================================================================
.subckt LPS6225-334_freq port1 port2 PARAMS: Cpar=3.2pF Ind=330uH
X1 port1 port2 Model1A PARAMS:
+ R1=23
+ R2=2
+ C= {Cpar}
+ K1=0.00000006
+ K2=60
+ K3= {Ind}
+ K4=2.6
+ K5=0.0000104
+ L=0
+ Is=0
+ a=0
+ L_Z0=0
+ L_EL=0
+ L_F0=0E6
+ PkZ=129834.875
.ends LPS6225-334_freq

*======================================================================
* SPICE Model generated by Coilcraft
* Coilcraft Part Number : LPS6225-334
* Inductance = 330uH
*======================================================================
* Model Parameters:
*   Valid Frequency Range = 0.1MHz-80MHz
*   Ambient Temperature = 25 degC
*   Inductor Impedance Model
*   Use model for Time Domain simulations
*======================================================================
.subckt LPS6225-334_imp port1 port2 PARAMS: Cpar=3.10pF Ind=330uH
X1 port1 port2 Model1D PARAMS:
+ R1=23
+ R2=2
+ C= {Cpar}
+ K1=0.00000006
+ K2=60
+ K3= {Ind}
+ K4=2.6
+ K5=0.0000104
+ L=0
+ Is=0
+ a=0
+ L_Z0=0
+ L_EL=0
+ L_F0=0E6
+ PkZ=129834.875
.ends LPS6225-334_imp

*======================================================================
* SPICE Model generated by Coilcraft
* Coilcraft Part Number : LPS6225-474
* Inductance = 470uH
*======================================================================
* Model Parameters:
*   Valid Frequency Range = 0.1MHz-50MHz
*   Ambient Temperature = 25 degC
*   Inductor Frequency Model
*   Use model for Frequency Domain simulations
*======================================================================
.subckt LPS6225-474_freq port1 port2 PARAMS: Cpar=3.8pF Ind=470uH
X1 port1 port2 Model1A PARAMS:
+ R1=25
+ R2=2.6
+ C= {Cpar}
+ K1=0.00000006
+ K2=90
+ K3= {Ind}
+ K4=2.7
+ K5=0.0000111
+ L=0
+ Is=0
+ a=0
+ L_Z0=0
+ L_EL=0
+ L_F0=0E6
+ PkZ=169460.452
.ends LPS6225-474_freq

*======================================================================
* SPICE Model generated by Coilcraft
* Coilcraft Part Number : LPS6225-474
* Inductance = 470uH
*======================================================================
* Model Parameters:
*   Valid Frequency Range = 0.1MHz-50MHz
*   Ambient Temperature = 25 degC
*   Inductor Impedance Model
*   Use model for Time Domain simulations
*======================================================================
.subckt LPS6225-474_imp port1 port2 PARAMS: Cpar=3.72pF Ind=470uH
X1 port1 port2 Model1D PARAMS:
+ R1=25
+ R2=2.6
+ C= {Cpar}
+ K1=0.00000006
+ K2=90
+ K3= {Ind}
+ K4=2.7
+ K5=0.0000111
+ L=0
+ Is=0
+ a=0
+ L_Z0=0
+ L_EL=0
+ L_F0=0E6
+ PkZ=169460.452
.ends LPS6225-474_imp

*======================================================================
* SPICE Model generated by Coilcraft
* Coilcraft Part Number : LPS6225-684
* Inductance = 680uH
*======================================================================
* Model Parameters:
*   Valid Frequency Range = 0.1MHz-100MHz
*   Ambient Temperature = 25 degC
*   Inductor Frequency Model
*   Use model for Frequency Domain simulations
*======================================================================
.subckt LPS6225-684_freq port1 port2 PARAMS: Cpar=4.5pF Ind=680uH
X1 port1 port2 Model1A PARAMS:
+ R1=30
+ R2=4
+ C= {Cpar}
+ K1=0.00000006
+ K2=125
+ K3= {Ind}
+ K4=6.5
+ K5=0.0000112
+ L=0
+ Is=0
+ a=0
+ L_Z0=0
+ L_EL=0
+ L_F0=0E6
+ PkZ=204832.823
.ends LPS6225-684_freq

*======================================================================
* SPICE Model generated by Coilcraft
* Coilcraft Part Number : LPS6225-684
* Inductance = 680uH
*======================================================================
* Model Parameters:
*   Valid Frequency Range = 0.1MHz-100MHz
*   Ambient Temperature = 25 degC
*   Inductor Impedance Model
*   Use model for Time Domain simulations
*======================================================================
.subckt LPS6225-684_imp port1 port2 PARAMS: Cpar=4.35pF Ind=680uH
X1 port1 port2 Model1D PARAMS:
+ R1=30
+ R2=4
+ C= {Cpar}
+ K1=0.00000006
+ K2=125
+ K3= {Ind}
+ K4=6.5
+ K5=0.0000112
+ L=0
+ Is=0
+ a=0
+ L_Z0=0
+ L_EL=0
+ L_F0=0E6
+ PkZ=204832.823
.ends LPS6225-684_imp

*======================================================================
* SPICE Model generated by Coilcraft
* Coilcraft Part Number : LPS6225-105
* Inductance = 1000uH
*======================================================================
* Model Parameters:
*   Valid Frequency Range = 0.1MHz-90MHz
*   Ambient Temperature = 25 degC
*   Inductor Frequency Model
*   Use model for Frequency Domain simulations
*======================================================================
.subckt LPS6225-105_freq port1 port2 PARAMS: Cpar=4pF Ind=1000uH
X1 port1 port2 Model1A PARAMS:
+ R1=30
+ R2=6
+ C= {Cpar}
+ K1=0.00000006
+ K2=185
+ K3= {Ind}
+ K4=9.2
+ K5=0.0000117
+ L=0
+ Is=0
+ a=0
+ L_Z0=0
+ L_EL=0
+ L_F0=0E6
+ PkZ=285351.523
.ends LPS6225-105_freq

*======================================================================
* SPICE Model generated by Coilcraft
* Coilcraft Part Number : LPS6225-105
* Inductance = 1000uH
*======================================================================
* Model Parameters:
*   Valid Frequency Range = 0.1MHz-90MHz
*   Ambient Temperature = 25 degC
*   Inductor Impedance Model
*   Use model for Time Domain simulations
*======================================================================
.subckt LPS6225-105_imp port1 port2 PARAMS: Cpar=3.88pF Ind=1000uH
X1 port1 port2 Model1D PARAMS:
+ R1=30
+ R2=6
+ C= {Cpar}
+ K1=0.00000006
+ K2=185
+ K3= {Ind}
+ K4=9.2
+ K5=0.0000117
+ L=0
+ Is=0
+ a=0
+ L_Z0=0
+ L_EL=0
+ L_F0=0E6
+ PkZ=285351.523
.ends LPS6225-105_imp

*======================================================================
* SPICE Model generated by Coilcraft
* Coilcraft Part Number : LPS6225-155
* Inductance = 1500uH
*======================================================================
* Model Parameters:
*   Valid Frequency Range = 0.1MHz-60MHz
*   Ambient Temperature = 25 degC
*   Inductor Frequency Model
*   Use model for Frequency Domain simulations
*======================================================================
.subckt LPS6225-155_freq port1 port2 PARAMS: Cpar=4.2pF Ind=1500uH
X1 port1 port2 Model1A PARAMS:
+ R1=39
+ R2=9
+ C= {Cpar}
+ K1=0.00000006
+ K2=300
+ K3= {Ind}
+ K4=6.5
+ K5=0.0000173
+ L=0
+ Is=0
+ a=0
+ L_Z0=0
+ L_EL=0
+ L_F0=0E6
+ PkZ=407209.256
.ends LPS6225-155_freq

*======================================================================
* SPICE Model generated by Coilcraft
* Coilcraft Part Number : LPS6225-155
* Inductance = 1500uH
*======================================================================
* Model Parameters:
*   Valid Frequency Range = 0.1MHz-60MHz
*   Ambient Temperature = 25 degC
*   Inductor Impedance Model
*   Use model for Time Domain simulations
*======================================================================
.subckt LPS6225-155_imp port1 port2 PARAMS: Cpar=4.14pF Ind=1500uH
X1 port1 port2 Model1D PARAMS:
+ R1=39
+ R2=9
+ C= {Cpar}
+ K1=0.00000006
+ K2=300
+ K3= {Ind}
+ K4=6.5
+ K5=0.0000173
+ L=0
+ Is=0
+ a=0
+ L_Z0=0
+ L_EL=0
+ L_F0=0E6
+ PkZ=407209.256
.ends LPS6225-155_imp

*======================================================================
* SPICE Model generated by Coilcraft
* Coilcraft Part Number : LPS6225-185
* Inductance = 1800uH
*======================================================================
* Model Parameters:
*   Valid Frequency Range = 0.1MHz-30MHz
*   Ambient Temperature = 25 degC
*   Inductor Frequency Model
*   Use model for Frequency Domain simulations
*======================================================================
.subckt LPS6225-185_freq port1 port2 PARAMS: Cpar=5pF Ind=1800uH
X1 port1 port2 Model1A PARAMS:
+ R1=25
+ R2=11.7
+ C= {Cpar}
+ K1=0.00006
+ K2=375
+ K3= {Ind}
+ K4=3.6
+ K5=0.0000561
+ L=0
+ Is=0
+ a=0
+ L_Z0=0
+ L_EL=0
+ L_F0=0E6
+ PkZ=470726.231
.ends LPS6225-185_freq

*======================================================================
* SPICE Model generated by Coilcraft
* Coilcraft Part Number : LPS6225-185
* Inductance = 1800uH
*======================================================================
* Model Parameters:
*   Valid Frequency Range = 0.1MHz-30MHz
*   Ambient Temperature = 25 degC
*   Inductor Impedance Model
*   Use model for Time Domain simulations
*======================================================================
.subckt LPS6225-185_imp port1 port2 PARAMS: Cpar=4.95pF Ind=1800uH
X1 port1 port2 Model1D PARAMS:
+ R1=25
+ R2=11.7
+ C= {Cpar}
+ K1=0.00006
+ K2=375
+ K3= {Ind}
+ K4=3.6
+ K5=0.0000561
+ L=0
+ Is=0
+ a=0
+ L_Z0=0
+ L_EL=0
+ L_F0=0E6
+ PkZ=470726.231
.ends LPS6225-185_imp

*======================================================================
* SPICE Model generated by Coilcraft
* Coilcraft Part Number : LPS6225-225
* Inductance = 2200uH
*======================================================================
* Model Parameters:
*   Valid Frequency Range = 0.1MHz-40MHz
*   Ambient Temperature = 25 degC
*   Inductor Frequency Model
*   Use model for Frequency Domain simulations
*======================================================================
.subckt LPS6225-225_freq port1 port2 PARAMS: Cpar=5.2pF Ind=2200uH
X1 port1 port2 Model1A PARAMS:
+ R1=34
+ R2=13.5
+ C= {Cpar}
+ K1=0.00000006
+ K2=460
+ K3= {Ind}
+ K4=3.1
+ K5=0.000228
+ L=0
+ Is=0
+ a=0
+ L_Z0=0
+ L_EL=0
+ L_F0=0E6
+ PkZ=537796.404
.ends LPS6225-225_freq

*======================================================================
* SPICE Model generated by Coilcraft
* Coilcraft Part Number : LPS6225-225
* Inductance = 2200uH
*======================================================================
* Model Parameters:
*   Valid Frequency Range = 0.1MHz-40MHz
*   Ambient Temperature = 25 degC
*   Inductor Impedance Model
*   Use model for Time Domain simulations
*======================================================================
.subckt LPS6225-225_imp port1 port2 PARAMS: Cpar=5.16pF Ind=2200uH
X1 port1 port2 Model1D PARAMS:
+ R1=34
+ R2=13.5
+ C= {Cpar}
+ K1=0.00000006
+ K2=460
+ K3= {Ind}
+ K4=3.1
+ K5=0.000228
+ L=0
+ Is=0
+ a=0
+ L_Z0=0
+ L_EL=0
+ L_F0=0E6
+ PkZ=537796.404
.ends LPS6225-225_imp

*======================================================================
* SPICE Model generated by Coilcraft
* Coilcraft Part Number : LPS6225-335
* Inductance = 3300uH
*======================================================================
* Model Parameters:
*   Valid Frequency Range = 0.1MHz-50MHz
*   Ambient Temperature = 25 degC
*   Inductor Frequency Model
*   Use model for Frequency Domain simulations
*======================================================================
.subckt LPS6225-335_freq port1 port2 PARAMS: Cpar=5.3pF Ind=3300uH
X1 port1 port2 Model1A PARAMS:
+ R1=45
+ R2=21
+ C= {Cpar}
+ K1=0.00000006
+ K2=1000
+ K3= {Ind}
+ K4=17
+ K5=0.0000375
+ L=0
+ Is=0
+ a=0
+ L_Z0=0
+ L_EL=0
+ L_F0=0E6
+ PkZ=1019616.89
.ends LPS6225-335_freq

*======================================================================
* SPICE Model generated by Coilcraft
* Coilcraft Part Number : LPS6225-335
* Inductance = 3300uH
*======================================================================
* Model Parameters:
*   Valid Frequency Range = 0.1MHz-50MHz
*   Ambient Temperature = 25 degC
*   Inductor Impedance Model
*   Use model for Time Domain simulations
*======================================================================
.subckt LPS6225-335_imp port1 port2 PARAMS: Cpar=5.20pF Ind=3300uH
X1 port1 port2 Model1D PARAMS:
+ R1=45
+ R2=21
+ C= {Cpar}
+ K1=0.00000006
+ K2=1000
+ K3= {Ind}
+ K4=17
+ K5=0.0000375
+ L=0
+ Is=0
+ a=0
+ L_Z0=0
+ L_EL=0
+ L_F0=0E6
+ PkZ=1019616.89
.ends LPS6225-335_imp

*======================================================================
* SPICE Model generated by Coilcraft
* Coilcraft Part Number : LPS6225-475