*======================================================================
* SPICE Model generated by Coilcraft
* Coilcraft Part Number : ME3220-102
* Inductance = 1uH
*======================================================================
* Model Parameters:
*   Valid Frequency Range = 0.1MHz-100MHz
*   Ambient Temperature = 25 degC
*   Inductor Frequency Model
*   Use model for Frequency Domain simulations
*======================================================================
.subckt ME3220-102_freq port1 port2 PARAMS: Cpar=1.76pF Ind=1uH
X1 port1 port2 Model1A PARAMS:
+ R1=34
+ R2=0.058
+ C= {Cpar}
+ K1=0.000001
+ K2=0.303
+ K3= {Ind}
+ K4=0.019
+ K5=0.0000098
+ L=0
+ Is=0
+ a=0
+ L_Z0=0
+ L_EL=0
+ L_F0=0E6
+ PkZ=2780.33887
.ends ME3220-102_freq

*======================================================================
* SPICE Model generated by Coilcraft
* Coilcraft Part Number : ME3220-102
* Inductance = 1uH
*======================================================================
* Model Parameters:
*   Valid Frequency Range = 0.1MHz-100MHz
*   Ambient Temperature = 25 degC
*   Inductor Impedance Model
*   Use model for Time Domain simulations
*======================================================================
.subckt ME3220-102_imp port1 port2 PARAMS: Cpar=1.52pF Ind=1uH
X1 port1 port2 Model1D PARAMS:
+ R1=34
+ R2=0.058
+ C= {Cpar}
+ K1=0.000001
+ K2=0.303
+ K3= {Ind}
+ K4=0.019
+ K5=0.0000098
+ L=0
+ Is=0
+ a=0
+ L_Z0=0
+ L_EL=0
+ L_F0=0E6
+ PkZ=2780.33887
.ends ME3220-102_imp

*======================================================================
* SPICE Model generated by Coilcraft
* Coilcraft Part Number : ME3220-152
* Inductance = 1.5uH
*======================================================================
* Model Parameters:
*   Valid Frequency Range = 0.1MHz-100MHz
*   Ambient Temperature = 25 degC
*   Inductor Frequency Model
*   Use model for Frequency Domain simulations
*======================================================================
.subckt ME3220-152_freq port1 port2 PARAMS: Cpar=1.48pF Ind=1.5uH
X1 port1 port2 Model1A PARAMS:
+ R1=35
+ R2=0.068
+ C= {Cpar}
+ K1=0.000001
+ K2=0.53
+ K3= {Ind}
+ K4=0.038
+ K5=0.0000099
+ L=0
+ Is=0
+ a=0
+ L_Z0=0
+ L_EL=0
+ L_F0=0E6
+ PkZ=4632.9304
.ends ME3220-152_freq

*======================================================================
* SPICE Model generated by Coilcraft
* Coilcraft Part Number : ME3220-152
* Inductance = 1.5uH
*======================================================================
* Model Parameters:
*   Valid Frequency Range = 0.1MHz-100MHz
*   Ambient Temperature = 25 degC
*   Inductor Impedance Model
*   Use model for Time Domain simulations
*======================================================================
.subckt ME3220-152_imp port1 port2 PARAMS: Cpar=1.22pF Ind=1.5uH
X1 port1 port2 Model1D PARAMS:
+ R1=35
+ R2=0.068
+ C= {Cpar}
+ K1=0.000001
+ K2=0.53
+ K3= {Ind}
+ K4=0.038
+ K5=0.0000099
+ L=0
+ Is=0
+ a=0
+ L_Z0=0
+ L_EL=0
+ L_F0=0E6
+ PkZ=4632.9304
.ends ME3220-152_imp

*======================================================================
* SPICE Model generated by Coilcraft
* Coilcraft Part Number : ME3220-222
* Inductance = 2.2uH
*======================================================================
* Model Parameters:
*   Valid Frequency Range = 0.1MHz-100MHz
*   Ambient Temperature = 25 degC
*   Inductor Frequency Model
*   Use model for Frequency Domain simulations
*======================================================================
.subckt ME3220-222_freq port1 port2 PARAMS: Cpar=1.74pF Ind=2.2uH
X1 port1 port2 Model1A PARAMS:
+ R1=37
+ R2=0.104
+ C= {Cpar}
+ K1=0.000001
+ K2=0.822
+ K3= {Ind}
+ K4=0.048
+ K5=0.0000099
+ L=0
+ Is=0
+ a=0
+ L_Z0=0
+ L_EL=0
+ L_F0=0E6
+ PkZ=6100.33521
.ends ME3220-222_freq

*======================================================================
* SPICE Model generated by Coilcraft
* Coilcraft Part Number : ME3220-222
* Inductance = 2.2uH
*======================================================================
* Model Parameters:
*   Valid Frequency Range = 0.1MHz-100MHz
*   Ambient Temperature = 25 degC
*   Inductor Impedance Model
*   Use model for Time Domain simulations
*======================================================================
.subckt ME3220-222_imp port1 port2 PARAMS: Cpar=1.49pF Ind=2.2uH
X1 port1 port2 Model1D PARAMS:
+ R1=37
+ R2=0.104
+ C= {Cpar}
+ K1=0.000001
+ K2=0.822
+ K3= {Ind}
+ K4=0.048
+ K5=0.0000099
+ L=0
+ Is=0
+ a=0
+ L_Z0=0
+ L_EL=0
+ L_F0=0E6
+ PkZ=6100.33521
.ends ME3220-222_imp

*======================================================================
* SPICE Model generated by Coilcraft
* Coilcraft Part Number : ME3220-332
* Inductance = 3.3uH
*======================================================================
* Model Parameters:
*   Valid Frequency Range = 0.1MHz-100MHz
*   Ambient Temperature = 25 degC
*   Inductor Frequency Model
*   Use model for Frequency Domain simulations
*======================================================================
.subckt ME3220-332_freq port1 port2 PARAMS: Cpar=1.52pF Ind=3.3uH
X1 port1 port2 Model1A PARAMS:
+ R1=31
+ R2=0.138
+ C= {Cpar}
+ K1=0.000015
+ K2=1.27
+ K3= {Ind}
+ K4=0.087
+ K5=0.00000995
+ L=0
+ Is=0
+ a=0
+ L_Z0=0
+ L_EL=0
+ L_F0=0E6
+ PkZ=9395.22958
.ends ME3220-332_freq

*======================================================================
* SPICE Model generated by Coilcraft
* Coilcraft Part Number : ME3220-332
* Inductance = 3.3uH
*======================================================================
* Model Parameters:
*   Valid Frequency Range = 0.1MHz-100MHz
*   Ambient Temperature = 25 degC
*   Inductor Impedance Model
*   Use model for Time Domain simulations
*======================================================================
.subckt ME3220-332_imp port1 port2 PARAMS: Cpar=1.26pF Ind=3.3uH
X1 port1 port2 Model1D PARAMS:
+ R1=31
+ R2=0.138
+ C= {Cpar}
+ K1=0.000015
+ K2=1.27
+ K3= {Ind}
+ K4=0.087
+ K5=0.00000995
+ L=0
+ Is=0
+ a=0
+ L_Z0=0
+ L_EL=0
+ L_F0=0E6
+ PkZ=9395.22958
.ends ME3220-332_imp

*======================================================================
* SPICE Model generated by Coilcraft
* Coilcraft Part Number : ME3220-472
* Inductance = 4.7uH
*======================================================================
* Model Parameters:
*   Valid Frequency Range = 0.1MHz-100MHz
*   Ambient Temperature = 25 degC
*   Inductor Frequency Model
*   Use model for Frequency Domain simulations
*======================================================================
.subckt ME3220-472_freq port1 port2 PARAMS: Cpar=1.74pF Ind=4.7uH
X1 port1 port2 Model1A PARAMS:
+ R1=34
+ R2=0.19
+ C= {Cpar}
+ K1=0.000025
+ K2=1.67
+ K3= {Ind}
+ K4=0.111
+ K5=0.00000995
+ L=0
+ Is=0
+ a=0
+ L_Z0=0
+ L_EL=0
+ L_F0=0E6
+ PkZ=10872.242
.ends ME3220-472_freq

*======================================================================
* SPICE Model generated by Coilcraft
* Coilcraft Part Number : ME3220-472
* Inductance = 4.7uH
*======================================================================
* Model Parameters:
*   Valid Frequency Range = 0.1MHz-100MHz
*   Ambient Temperature = 25 degC
*   Inductor Impedance Model
*   Use model for Time Domain simulations
*======================================================================
.subckt ME3220-472_imp port1 port2 PARAMS: Cpar=1.48pF Ind=4.7uH
X1 port1 port2 Model1D PARAMS:
+ R1=34
+ R2=0.19
+ C= {Cpar}
+ K1=0.000025
+ K2=1.67
+ K3= {Ind}
+ K4=0.111
+ K5=0.00000995
+ L=0
+ Is=0
+ a=0
+ L_Z0=0
+ L_EL=0
+ L_F0=0E6
+ PkZ=10872.242
.ends ME3220-472_imp

*======================================================================
* SPICE Model generated by Coilcraft
* Coilcraft Part Number : ME3220-562
* Inductance = 5.6uH
*======================================================================
* Model Parameters:
*   Valid Frequency Range = 0.1MHz-100MHz
*   Ambient Temperature = 25 degC
*   Inductor Frequency Model
*   Use model for Frequency Domain simulations
*======================================================================
.subckt ME3220-562_freq port1 port2 PARAMS: Cpar=1.57pF Ind=5.6uH
X1 port1 port2 Model1A PARAMS:
+ R1=27
+ R2=0.2
+ C= {Cpar}
+ K1=0.00006
+ K2=1.84
+ K3= {Ind}
+ K4=0.135
+ K5=0.00000995
+ L=0
+ Is=0
+ a=0
+ L_Z0=0
+ L_EL=0
+ L_F0=0E6
+ PkZ=12456.2965
.ends ME3220-562_freq

*======================================================================
* SPICE Model generated by Coilcraft
* Coilcraft Part Number : ME3220-562
* Inductance = 5.6uH
*======================================================================
* Model Parameters:
*   Valid Frequency Range = 0.1MHz-100MHz
*   Ambient Temperature = 25 degC
*   Inductor Impedance Model
*   Use model for Time Domain simulations
*======================================================================
.subckt ME3220-562_imp port1 port2 PARAMS: Cpar=1.33pF Ind=5.6uH
X1 port1 port2 Model1D PARAMS:
+ R1=27
+ R2=0.2
+ C= {Cpar}
+ K1=0.00006
+ K2=1.84
+ K3= {Ind}
+ K4=0.135
+ K5=0.00000995
+ L=0
+ Is=0
+ a=0
+ L_Z0=0
+ L_EL=0
+ L_F0=0E6
+ PkZ=12456.2965
.ends ME3220-562_imp

*======================================================================
* SPICE Model generated by Coilcraft
* Coilcraft Part Number : ME3220-682
* Inductance = 6.8uH
*======================================================================
* Model Parameters:
*   Valid Frequency Range = 0.1MHz-100MHz
*   Ambient Temperature = 25 degC
*   Inductor Frequency Model
*   Use model for Frequency Domain simulations
*======================================================================
.subckt ME3220-682_freq port1 port2 PARAMS: Cpar=1.56pF Ind=6.8uH
X1 port1 port2 Model1A PARAMS:
+ R1=24
+ R2=0.27
+ C= {Cpar}
+ K1=0.00009
+ K2=2.45
+ K3= {Ind}
+ K4=0.135
+ K5=0.00000995
+ L=0
+ Is=0
+ a=0
+ L_Z0=0
+ L_EL=0
+ L_F0=0E6
+ PkZ=15883.575
.ends ME3220-682_freq

*======================================================================
* SPICE Model generated by Coilcraft
* Coilcraft Part Number : ME3220-682
* Inductance = 6.8uH
*======================================================================
* Model Parameters:
*   Valid Frequency Range = 0.1MHz-100MHz
*   Ambient Temperature = 25 degC
*   Inductor Impedance Model
*   Use model for Time Domain simulations
*======================================================================
.subckt ME3220-682_imp port1 port2 PARAMS: Cpar=1.37pF Ind=6.8uH
X1 port1 port2 Model1D PARAMS:
+ R1=24
+ R2=0.27
+ C= {Cpar}
+ K1=0.00009
+ K2=2.45
+ K3= {Ind}
+ K4=0.135
+ K5=0.00000995
+ L=0
+ Is=0
+ a=0
+ L_Z0=0
+ L_EL=0
+ L_F0=0E6
+ PkZ=15883.575
.ends ME3220-682_imp

*======================================================================
* SPICE Model generated by Coilcraft
* Coilcraft Part Number : ME3220-822
* Inductance = 8.2uH
*======================================================================
* Model Parameters:
*   Valid Frequency Range = 0.1MHz-90MHz
*   Ambient Temperature = 25 degC
*   Inductor Frequency Model
*   Use model for Frequency Domain simulations
*======================================================================
.subckt ME3220-822_freq port1 port2 PARAMS: Cpar=1.62pF Ind=8.2uH
X1 port1 port2 Model1A PARAMS:
+ R1=29
+ R2=0.29
+ C= {Cpar}
+ K1=0.000175
+ K2=2.86
+ K3= {Ind}
+ K4=0.156
+ K5=0.00000995
+ L=0
+ Is=0
+ a=0
+ L_Z0=0
+ L_EL=0
+ L_F0=0E6
+ PkZ=17223.6701
.ends ME3220-822_freq

*======================================================================
* SPICE Model generated by Coilcraft
* Coilcraft Part Number : ME3220-822
* Inductance = 8.2uH
*======================================================================
* Model Parameters:
*   Valid Frequency Range = 0.1MHz-90MHz
*   Ambient Temperature = 25 degC
*   Inductor Impedance Model
*   Use model for Time Domain simulations
*======================================================================
.subckt ME3220-822_imp port1 port2 PARAMS: Cpar=1.43pF Ind=8.2uH
X1 port1 port2 Model1D PARAMS:
+ R1=29
+ R2=0.29
+ C= {Cpar}
+ K1=0.000175
+ K2=2.86
+ K3= {Ind}
+ K4=0.156
+ K5=0.00000995
+ L=0
+ Is=0
+ a=0
+ L_Z0=0
+ L_EL=0
+ L_F0=0E6
+ PkZ=17223.6701
.ends ME3220-822_imp

*======================================================================
* SPICE Model generated by Coilcraft
* Coilcraft Part Number : ME3220-103
* Inductance = 10uH
*======================================================================
* Model Parameters:
*   Valid Frequency Range = 0.1MHz-90MHz
*   Ambient Temperature = 25 degC
*   Inductor Frequency Model
*   Use model for Frequency Domain simulations
*======================================================================
.subckt ME3220-103_freq port1 port2 PARAMS: Cpar=1.32pF Ind=10uH
X1 port1 port2 Model1A PARAMS:
+ R1=27
+ R2=0.434
+ C= {Cpar}
+ K1=0.0001
+ K2=3.21
+ K3= {Ind}
+ K4=0.156
+ K5=0.00000995
+ L=0
+ Is=0
+ a=0
+ L_Z0=0
+ L_EL=0
+ L_F0=0E6
+ PkZ=20021.2467
.ends ME3220-103_freq

*======================================================================
* SPICE Model generated by Coilcraft
* Coilcraft Part Number : ME3220-103
* Inductance = 10uH
*======================================================================
* Model Parameters:
*   Valid Frequency Range = 0.1MHz-90MHz
*   Ambient Temperature = 25 degC
*   Inductor Impedance Model
*   Use model for Time Domain simulations
*======================================================================
.subckt ME3220-103_imp port1 port2 PARAMS: Cpar=1.19pF Ind=10uH
X1 port1 port2 Model1D PARAMS:
+ R1=27
+ R2=0.434
+ C= {Cpar}
+ K1=0.0001
+ K2=3.21
+ K3= {Ind}
+ K4=0.156
+ K5=0.00000995
+ L=0
+ Is=0
+ a=0
+ L_Z0=0
+ L_EL=0
+ L_F0=0E6
+ PkZ=20021.2467
.ends ME3220-103_imp

*======================================================================
* SPICE Model generated by Coilcraft
* Coilcraft Part Number : ME3220-123
* Inductance = 12uH
*======================================================================
* Model Parameters:
*   Valid Frequency Range = 0.1MHz-80MHz
*   Ambient Temperature = 25 degC
*   Inductor Frequency Model
*   Use model for Frequency Domain simulations
*======================================================================
.subckt ME3220-123_freq port1 port2 PARAMS: Cpar=1.64pF Ind=12uH
X1 port1 port2 Model1A PARAMS:
+ R1=32
+ R2=0.47
+ C= {Cpar}
+ K1=0.00015
+ K2=4.1
+ K3= {Ind}
+ K4=0.187
+ K5=0.00000995
+ L=0
+ Is=0
+ a=0
+ L_Z0=0
+ L_EL=0
+ L_F0=0E6
+ PkZ=22367.8372
.ends ME3220-123_freq

*======================================================================
* SPICE Model generated by Coilcraft
* Coilcraft Part Number : ME3220-123
* Inductance = 12uH
*======================================================================
* Model Parameters:
*   Valid Frequency Range = 0.1MHz-80MHz
*   Ambient Temperature = 25 degC
*   Inductor Impedance Model
*   Use model for Time Domain simulations
*======================================================================
.subckt ME3220-123_imp port1 port2 PARAMS: Cpar=1.49pF Ind=12uH
X1 port1 port2 Model1D PARAMS:
+ R1=32
+ R2=0.47
+ C= {Cpar}
+ K1=0.00015
+ K2=4.1
+ K3= {Ind}
+ K4=0.187
+ K5=0.00000995
+ L=0
+ Is=0
+ a=0
+ L_Z0=0
+ L_EL=0
+ L_F0=0E6
+ PkZ=22367.8372
.ends ME3220-123_imp

*======================================================================
* SPICE Model generated by Coilcraft
* Coilcraft Part Number : ME3220-153
* Inductance = 15uH
*======================================================================
* Model Parameters:
*   Valid Frequency Range = 0.1MHz-80MHz
*   Ambient Temperature = 25 degC
*   Inductor Frequency Model
*   Use model for Frequency Domain simulations
*======================================================================
.subckt ME3220-153_freq port1 port2 PARAMS: Cpar=1.56pF Ind=15uH
X1 port1 port2 Model1A PARAMS:
+ R1=31
+ R2=0.52
+ C= {Cpar}
+ K1=0.0002
+ K2=5.23
+ K3= {Ind}
+ K4=0.263
+ K5=0.00000995
+ L=0
+ Is=0
+ a=0
+ L_Z0=0
+ L_EL=0
+ L_F0=0E6
+ PkZ=27639.5661
.ends ME3220-153_freq

*======================================================================
* SPICE Model generated by Coilcraft
* Coilcraft Part Number : ME3220-153
* Inductance = 15uH
*======================================================================
* Model Parameters:
*   Valid Frequency Range = 0.1MHz-80MHz
*   Ambient Temperature = 25 degC
*   Inductor Impedance Model
*   Use model for Time Domain simulations
*======================================================================
.subckt ME3220-153_imp port1 port2 PARAMS: Cpar=1.40pF Ind=15uH
X1 port1 port2 Model1D PARAMS:
+ R1=31
+ R2=0.52
+ C= {Cpar}
+ K1=0.0002
+ K2=5.23
+ K3= {Ind}
+ K4=0.263
+ K5=0.00000995
+ L=0
+ Is=0
+ a=0
+ L_Z0=0
+ L_EL=0
+ L_F0=0E6
+ PkZ=27639.5661
.ends ME3220-153_imp

*======================================================================
* SPICE Model generated by Coilcraft
* Coilcraft Part Number : ME3220-183
* Inductance = 18uH
*======================================================================
* Model Parameters:
*   Valid Frequency Range = 0.1MHz-70MHz
*   Ambient Temperature = 25 degC
*   Inductor Frequency Model
*   Use model for Frequency Domain simulations
*======================================================================
.subckt ME3220-183_freq port1 port2 PARAMS: Cpar=1.88pF Ind=18uH
X1 port1 port2 Model1A PARAMS:
+ R1=30
+ R2=0.696
+ C= {Cpar}
+ K1=0.00005
+ K2=6.25
+ K3= {Ind}
+ K4=0.245
+ K5=0.00000998
+ L=0
+ Is=0
+ a=0
+ L_Z0=0
+ L_EL=0
+ L_F0=0E6
+ PkZ=29931.1712
.ends ME3220-183_freq

*======================================================================
* SPICE Model generated by Coilcraft
* Coilcraft Part Number : ME3220-183
* Inductance = 18uH
*======================================================================
* Model Parameters:
*   Valid Frequency Range = 0.1MHz-70MHz
*   Ambient Temperature = 25 degC
*   Inductor Impedance Model
*   Use model for Time Domain simulations
*======================================================================
.subckt ME3220-183_imp port1 port2 PARAMS: Cpar=1.74pF Ind=18uH
X1 port1 port2 Model1D PARAMS:
+ R1=30
+ R2=0.696
+ C= {Cpar}
+ K1=0.00005
+ K2=6.25
+ K3= {Ind}
+ K4=0.245
+ K5=0.00000998
+ L=0
+ Is=0
+ a=0
+ L_Z0=0
+ L_EL=0
+ L_F0=0E6
+ PkZ=29931.1712
.ends ME3220-183_imp

*======================================================================
* SPICE Model generated by Coilcraft
* Coilcraft Part Number : ME3220-223
* Inductance = 22uH
*======================================================================
* Model Parameters:
*   Valid Frequency Range = 0.1MHz-70MHz
*   Ambient Temperature = 25 degC
*   Inductor Frequency Model
*   Use model for Frequency Domain simulations
*======================================================================
.subckt ME3220-223_freq port1 port2 PARAMS: Cpar=1.68pF Ind=22uH
X1 port1 port2 Model1A PARAMS:
+ R1=23
+ R2=0.787
+ C= {Cpar}
+ K1=0.00015
+ K2=6.63
+ K3= {Ind}
+ K4=0.345
+ K5=0.00000995
+ L=0
+ Is=0
+ a=0
+ L_Z0=0
+ L_EL=0
+ L_F0=0E6
+ PkZ=32463.4738
.ends ME3220-223_freq

*======================================================================
* SPICE Model generated by Coilcraft
* Coilcraft Part Number : ME3220-223
* Inductance = 22uH
*======================================================================
* Model Parameters:
*   Valid Frequency Range = 0.1MHz-70MHz
*   Ambient Temperature = 25 degC
*   Inductor Impedance Model
*   Use model for Time Domain simulations
*======================================================================
.subckt ME3220-223_imp port1 port2 PARAMS: Cpar=1.53pF Ind=22uH
X1 port1 port2 Model1D PARAMS:
+ R1=23
+ R2=0.787
+ C= {Cpar}
+ K1=0.00015
+ K2=6.63
+ K3= {Ind}
+ K4=0.345
+ K5=0.00000995
+ L=0
+ Is=0
+ a=0
+ L_Z0=0
+ L_EL=0
+ L_F0=0E6
+ PkZ=32463.4738
.ends ME3220-223_imp

*======================================================================
* SPICE Model generated by Coilcraft
* Coilcraft Part Number : ME3220-273
* Inductance = 27uH
*======================================================================
* Model Parameters:
*   Valid Frequency Range = 0.1MHz-70MHz
*   Ambient Temperature = 25 degC
*   Inductor Frequency Model
*   Use model for Frequency Domain simulations
*======================================================================
.subckt ME3220-273_freq port1 port2 PARAMS: Cpar=1.66pF Ind=27uH
X1 port1 port2 Model1A PARAMS:
+ R1=10
+ R2=1.19
+ C= {Cpar}
+ K1=0.00006
+ K2=7.48
+ K3= {Ind}
+ K4=0.328
+ K5=0.00000997
+ L=0
+ Is=0
+ a=0
+ L_Z0=0
+ L_EL=0
+ L_F0=0E6
+ PkZ=36192.9974
.ends ME3220-273_freq

*======================================================================
* SPICE Model generated by Coilcraft
* Coilcraft Part Number : ME3220-273
* Inductance = 27uH
*======================================================================
* Model Parameters:
*   Valid Frequency Range = 0.1MHz-70MHz
*   Ambient Temperature = 25 degC
*   Inductor Impedance Model
*   Use model for Time Domain simulations
*======================================================================
.subckt ME3220-273_imp port1 port2 PARAMS: Cpar=1.55pF Ind=27uH
X1 port1 port2 Model1D PARAMS:
+ R1=10
+ R2=1.19
+ C= {Cpar}
+ K1=0.00006
+ K2=7.48
+ K3= {Ind}
+ K4=0.328
+ K5=0.00000997
+ L=0
+ Is=0
+ a=0
+ L_Z0=0
+ L_EL=0
+ L_F0=0E6
+ PkZ=36192.9974
.ends ME3220-273_imp

*======================================================================
* SPICE Model generated by Coilcraft
* Coilcraft Part Number : ME3220-333
* Inductance = 33uH
*======================================================================
* Model Parameters:
*   Valid Frequency Range = 0.1MHz-70MHz
*   Ambient Temperature = 25 degC
*   Inductor Frequency Model
*   Use model for Frequency Domain simulations
*======================================================================
.subckt ME3220-333_freq port1 port2 PARAMS: Cpar=1.92pF Ind=33uH
X1 port1 port2 Model1A PARAMS:
+ R1=10
+ R2=1.27
+ C= {Cpar}
+ K1=0.00006
+ K2=8.95
+ K3= {Ind}
+ K4=0.38
+ K5=0.00000997
+ L=0
+ Is=0
+ a=0
+ L_Z0=0
+ L_EL=0
+ L_F0=0E6
+ PkZ=39630.1262
.ends ME3220-333_freq

*======================================================================
* SPICE Model generated by Coilcraft
* Coilcraft Part Number : ME3220-333
* Inductance = 33uH
*======================================================================
* Model Parameters:
*   Valid Frequency Range = 0.1MHz-70MHz
*   Ambient Temperature = 25 degC
*   Inductor Impedance Model
*   Use model for Time Domain simulations
*======================================================================
.subckt ME3220-333_imp port1 port2 PARAMS: Cpar=1.80pF Ind=33uH
X1 port1 port2 Model1D PARAMS:
+ R1=10
+ R2=1.27
+ C= {Cpar}
+ K1=0.00006
+ K2=8.95
+ K3= {Ind}
+ K4=0.38
+ K5=0.00000997
+ L=0
+ Is=0
+ a=0
+ L_Z0=0
+ L_EL=0
+ L_F0=0E6
+ PkZ=39630.1262
.ends ME3220-333_imp

*======================================================================
* SPICE Model generated by Coilcraft
* Coilcraft Part Number : ME3220-393
* Inductance = 39uH
*======================================================================
* Model Parameters:
*   Valid Frequency Range = 0.1MHz-70MHz
*   Ambient Temperature = 25 degC
*   Inductor Frequency Model
*   Use model for Frequency Domain simulations
*======================================================================
.subckt ME3220-393_freq port1 port2 PARAMS: Cpar=1.81pF Ind=39uH
X1 port1 port2 Model1A PARAMS:
+ R1=10
+ R2=1.38
+ C= {Cpar}
+ K1=0.0005
+ K2=11.1
+ K3= {Ind}
+ K4=0.525
+ K5=0.0000099
+ L=0
+ Is=0
+ a=0
+ L_Z0=0
+ L_EL=0
+ L_F0=0E6
+ PkZ=47768.5041
.ends ME3220-393_freq

*======================================================================
* SPICE Model generated by Coilcraft
* Coilcraft Part Number : ME3220-393
* Inductance = 39uH
*======================================================================
* Model Parameters:
*   Valid Frequency Range = 0.1MHz-70MHz
*   Ambient Temperature = 25 degC
*   Inductor Impedance Model
*   Use model for Time Domain simulations
*======================================================================
.subckt ME3220-393_imp port1 port2 PARAMS: Cpar=1.68pF Ind=39uH
X1 port1 port2 Model1D PARAMS:
+ R1=10
+ R2=1.38
+ C= {Cpar}
+ K1=0.0005
+ K2=11.1
+ K3= {Ind}
+ K4=0.525
+ K5=0.0000099
+ L=0
+ Is=0
+ a=0
+ L_Z0=0
+ L_EL=0
+ L_F0=0E6
+ PkZ=47768.5041
.ends ME3220-393_imp

*======================================================================
* SPICE Model generated by Coilcraft
* Coilcraft Part Number : ME3220-473
* Inductance = 47uH
*======================================================================
* Model Parameters:
*   Valid Frequency Range = 0.1MHz-70MHz
*   Ambient Temperature = 25 degC
*   Inductor Frequency Model
*   Use model for Frequency Domain simulations
*======================================================================
.subckt ME3220-473_freq port1 port2 PARAMS: Cpar=1.84pF Ind=47uH
X1 port1 port2 Model1A PARAMS:
+ R1=7
+ R2=1.8
+ C= {Cpar}
+ K1=0.0004
+ K2=14.1
+ K3= {Ind}
+ K4=0.67
+ K5=0.00000995
+ L=0
+ Is=0
+ a=0
+ L_Z0=0
+ L_EL=0
+ L_F0=0E6
+ PkZ=58181.6963
.ends ME3220-473_freq

*======================================================================
* SPICE Model generated by Coilcraft
* Coilcraft Part Number : ME3220-473
* Inductance = 47uH
*======================================================================
* Model Parameters:
*   Valid Frequency Range = 0.1MHz-70MHz
*   Ambient Temperature = 25 degC
*   Inductor Impedance Model
*   Use model for Time Domain simulations
*======================================================================
.subckt ME3220-473_imp port1 port2 PARAMS: Cpar=1.71pF Ind=47uH
X1 port1 port2 Model1D PARAMS:
+ R1=7
+ R2=1.8
+ C= {Cpar}
+ K1=0.0004
+ K2=14.1
+ K3= {Ind}
+ K4=0.67
+ K5=0.00000995
+ L=0
+ Is=0
+ a=0
+ L_Z0=0
+ L_EL=0
+ L_F0=0E6
+ PkZ=58181.6963
.ends ME3220-473_imp

*======================================================================
* SPICE Model generated by Coilcraft
* Coilcraft Part Number : ME3220-563
* Inductance = 56uH
*======================================================================
* Model Parameters:
*   Valid Frequency Range = 0.1MHz-70MHz
*   Ambient Temperature = 25 degC
*   Inductor Frequency Model
*   Use model for Frequency Domain simulations
*======================================================================
.subckt ME3220-563_freq port1 port2 PARAMS: Cpar=2.18pF Ind=56uH
X1 port1 port2 Model1A PARAMS:
+ R1=1
+ R2=2.1
+ C= {Cpar}
+ K1=0.00015
+ K2=15
+ K3= {Ind}
+ K4=0.898
+ K5=0.00000998
+ L=0
+ Is=0
+ a=0
+ L_Z0=0
+ L_EL=0
+ L_F0=0E6
+ PkZ=57898.5457
.ends ME3220-563_freq

*======================================================================
* SPICE Model generated by Coilcraft
* Coilcraft Part Number : ME3220-563
* Inductance = 56uH
*======================================================================
* Model Parameters:
*   Valid Frequency Range = 0.1MHz-70MHz
*   Ambient Temperature = 25 degC
*   Inductor Impedance Model
*   Use model for Time Domain simulations
*======================================================================
.subckt ME3220-563_imp port1 port2 PARAMS: Cpar=2.01pF Ind=56uH
X1 port1 port2 Model1D PARAMS:
+ R1=1
+ R2=2.1
+ C= {Cpar}
+ K1=0.00015
+ K2=15
+ K3= {Ind}
+ K4=0.898
+ K5=0.00000998
+ L=0
+ Is=0
+ a=0
+ L_Z0=0
+ L_EL=0
+ L_F0=0E6
+ PkZ=57898.5457
.ends ME3220-563_imp

*======================================================================
* SPICE Model generated by Coilcraft
* Coilcraft Part Number : ME3220-683
* Inductance = 68uH
*======================================================================
* Model Parameters:
*   Valid Frequency Range = 0.1MHz-60MHz
*   Ambient Temperature = 25 degC
*   Inductor Frequency Model
*   Use model for Frequency Domain simulations
*======================================================================
.subckt ME3220-683_freq port1 port2 PARAMS: Cpar=1.99pF Ind=68uH
X1 port1 port2 Model1A PARAMS:
+ R1=2
+ R2=2.3
+ C= {Cpar}
+ K1=0.0006
+ K2=15.8
+ K3= {Ind}
+ K4=1.04
+ K5=0.00000994
+ L=0
+ Is=0
+ a=0
+ L_Z0=0
+ L_EL=0
+ L_F0=0E6
+ PkZ=59119.9668
.ends ME3220-683_freq

*======================================================================
* SPICE Model generated by Coilcraft
* Coilcraft Part Number : ME3220-683
* Inductance = 68uH
*======================================================================
* Model Parameters:
*   Valid Frequency Range = 0.1MHz-60MHz
*   Ambient Temperature = 25 degC
*   Inductor Impedance Model
*   Use model for Time Domain simulations
*======================================================================
.subckt ME3220-683_imp port1 port2 PARAMS: Cpar=1.84pF Ind=68uH
X1 port1 port2 Model1D PARAMS:
+ R1=2
+ R2=2.3
+ C= {Cpar}
+ K1=0.0006
+ K2=15.8
+ K3= {Ind}
+ K4=1.04
+ K5=0.00000994
+ L=0
+ Is=0
+ a=0
+ L_Z0=0
+ L_EL=0
+ L_F0=0E6
+ PkZ=59119.9668
.ends ME3220-683_imp

*======================================================================
* SPICE Model generated by Coilcraft
* Coilcraft Part Number : ME3220-823
* Inductance = 82uH