*======================================================================
* SPICE Model generated by Coilcraft
* Coilcraft Part Number : MSS1038T-152
* Inductance = 1.5uH
*======================================================================
* Model Parameters:
*   Valid Frequency Range = 0.1MHz-100MHz
*   Ambient Temperature = 25 degC
*   Inductor Frequency Model
*   Use model for Frequency Domain simulations
*======================================================================
.subckt MSS1038T-152_freq port1 port2 PARAMS: Cpar=2.45pF Ind=1.5uH
X1 port1 port2 Model1A PARAMS:
+ R1=190
+ R2=0.008
+ C= {Cpar}
+ K1=0.00025
+ K2=0.36
+ K3= {Ind}
+ K4=0.038
+ K5=0.0000095
+ L=0
+ Is=0
+ a=0
+ L_Z0=0
+ L_EL=0
+ L_F0=0E6
+ PkZ=1534.40643
.ends MSS1038T-152_freq

*======================================================================
* SPICE Model generated by Coilcraft
* Coilcraft Part Number : MSS1038T-152
* Inductance = 1.5uH
*======================================================================
* Model Parameters:
*   Valid Frequency Range = 0.1MHz-100MHz
*   Ambient Temperature = 25 degC
*   Inductor Impedance Model
*   Use model for Time Domain simulations
*======================================================================
.subckt MSS1038T-152_imp port1 port2 PARAMS: Cpar=2.04pF Ind=1.5uH
X1 port1 port2 Model1D PARAMS:
+ R1=190
+ R2=0.008
+ C= {Cpar}
+ K1=0.00025
+ K2=0.36
+ K3= {Ind}
+ K4=0.038
+ K5=0.0000095
+ L=0
+ Is=0
+ a=0
+ L_Z0=0
+ L_EL=0
+ L_F0=0E6
+ PkZ=1534.40643
.ends MSS1038T-152_imp

*======================================================================
* SPICE Model generated by Coilcraft
* Coilcraft Part Number : MSS1038T-252
* Inductance = 2.5uH
*======================================================================
* Model Parameters:
*   Valid Frequency Range = 0.1MHz-80MHz
*   Ambient Temperature = 25 degC
*   Inductor Frequency Model
*   Use model for Frequency Domain simulations
*======================================================================
.subckt MSS1038T-252_freq port1 port2 PARAMS: Cpar=3.47pF Ind=2.5uH
X1 port1 port2 Model1A PARAMS:
+ R1=115
+ R2=0.01
+ C= {Cpar}
+ K1=0.00015
+ K2=0.9
+ K3= {Ind}
+ K4=0.038
+ K5=0.0000097
+ L=0
+ Is=0
+ a=0
+ L_Z0=0
+ L_EL=0
+ L_F0=0E6
+ PkZ=3095.2105
.ends MSS1038T-252_freq

*======================================================================
* SPICE Model generated by Coilcraft
* Coilcraft Part Number : MSS1038T-252
* Inductance = 2.5uH
*======================================================================
* Model Parameters:
*   Valid Frequency Range = 0.1MHz-80MHz
*   Ambient Temperature = 25 degC
*   Inductor Impedance Model
*   Use model for Time Domain simulations
*======================================================================
.subckt MSS1038T-252_imp port1 port2 PARAMS: Cpar=3.14pF Ind=2.5uH
X1 port1 port2 Model1D PARAMS:
+ R1=115
+ R2=0.01
+ C= {Cpar}
+ K1=0.00015
+ K2=0.9
+ K3= {Ind}
+ K4=0.038
+ K5=0.0000097
+ L=0
+ Is=0
+ a=0
+ L_Z0=0
+ L_EL=0
+ L_F0=0E6
+ PkZ=3095.2105
.ends MSS1038T-252_imp

*======================================================================
* SPICE Model generated by Coilcraft
* Coilcraft Part Number : MSS1038T-382
* Inductance = 3.8uH
*======================================================================
* Model Parameters:
*   Valid Frequency Range = 0.1MHz-80MHz
*   Ambient Temperature = 25 degC
*   Inductor Frequency Model
*   Use model for Frequency Domain simulations
*======================================================================
.subckt MSS1038T-382_freq port1 port2 PARAMS: Cpar=3.86pF Ind=3.8uH
X1 port1 port2 Model1A PARAMS:
+ R1=100
+ R2=0.013
+ C= {Cpar}
+ K1=0.00019
+ K2=1.1
+ K3= {Ind}
+ K4=0.04
+ K5=0.0000097
+ L=0
+ Is=0
+ a=0
+ L_Z0=0
+ L_EL=0
+ L_F0=0E6
+ PkZ=4038.37522
.ends MSS1038T-382_freq

*======================================================================
* SPICE Model generated by Coilcraft
* Coilcraft Part Number : MSS1038T-382
* Inductance = 3.8uH
*======================================================================
* Model Parameters:
*   Valid Frequency Range = 0.1MHz-80MHz
*   Ambient Temperature = 25 degC
*   Inductor Impedance Model
*   Use model for Time Domain simulations
*======================================================================
.subckt MSS1038T-382_imp port1 port2 PARAMS: Cpar=3.62pF Ind=3.8uH
X1 port1 port2 Model1D PARAMS:
+ R1=100
+ R2=0.013
+ C= {Cpar}
+ K1=0.00019
+ K2=1.1
+ K3= {Ind}
+ K4=0.04
+ K5=0.0000097
+ L=0
+ Is=0
+ a=0
+ L_Z0=0
+ L_EL=0
+ L_F0=0E6
+ PkZ=4038.37522
.ends MSS1038T-382_imp

*======================================================================
* SPICE Model generated by Coilcraft
* Coilcraft Part Number : MSS1038T-522
* Inductance = 5.2uH
*======================================================================
* Model Parameters:
*   Valid Frequency Range = 0.1MHz-60MHz
*   Ambient Temperature = 25 degC
*   Inductor Frequency Model
*   Use model for Frequency Domain simulations
*======================================================================
.subckt MSS1038T-522_freq port1 port2 PARAMS: Cpar=3.69pF Ind=5.2uH
X1 port1 port2 Model1A PARAMS:
+ R1=150
+ R2=0.022
+ C= {Cpar}
+ K1=0.0001
+ K2=2.1
+ K3= {Ind}
+ K4=0.04
+ K5=0.0000098
+ L=0
+ Is=0
+ a=0
+ L_Z0=0
+ L_EL=0
+ L_F0=0E6
+ PkZ=5298.37561
.ends MSS1038T-522_freq

*======================================================================
* SPICE Model generated by Coilcraft
* Coilcraft Part Number : MSS1038T-522
* Inductance = 5.2uH
*======================================================================
* Model Parameters:
*   Valid Frequency Range = 0.1MHz-60MHz
*   Ambient Temperature = 25 degC
*   Inductor Impedance Model
*   Use model for Time Domain simulations
*======================================================================
.subckt MSS1038T-522_imp port1 port2 PARAMS: Cpar=3.52pF Ind=5.2uH
X1 port1 port2 Model1D PARAMS:
+ R1=150
+ R2=0.022
+ C= {Cpar}
+ K1=0.0001
+ K2=2.1
+ K3= {Ind}
+ K4=0.04
+ K5=0.0000098
+ L=0
+ Is=0
+ a=0
+ L_Z0=0
+ L_EL=0
+ L_F0=0E6
+ PkZ=5298.37561
.ends MSS1038T-522_imp

*======================================================================
* SPICE Model generated by Coilcraft
* Coilcraft Part Number : MSS1038T-702
* Inductance = 7uH
*======================================================================
* Model Parameters:
*   Valid Frequency Range = 0.1MHz-40MHz
*   Ambient Temperature = 25 degC
*   Inductor Frequency Model
*   Use model for Frequency Domain simulations
*======================================================================
.subckt MSS1038T-702_freq port1 port2 PARAMS: Cpar=3.04pF Ind=7uH
X1 port1 port2 Model1A PARAMS:
+ R1=230
+ R2=0.027
+ C= {Cpar}
+ K1=0.0004
+ K2=4.8
+ K3= {Ind}
+ K4=0.06
+ K5=0.0000098
+ L=0
+ Is=0
+ a=0
+ L_Z0=0
+ L_EL=0
+ L_F0=0E6
+ PkZ=7158.75235
.ends MSS1038T-702_freq

*======================================================================
* SPICE Model generated by Coilcraft
* Coilcraft Part Number : MSS1038T-702
* Inductance = 7uH
*======================================================================
* Model Parameters:
*   Valid Frequency Range = 0.1MHz-40MHz
*   Ambient Temperature = 25 degC
*   Inductor Impedance Model
*   Use model for Time Domain simulations
*======================================================================
.subckt MSS1038T-702_imp port1 port2 PARAMS: Cpar=2.89pF Ind=7uH
X1 port1 port2 Model1D PARAMS:
+ R1=230
+ R2=0.027
+ C= {Cpar}
+ K1=0.0004
+ K2=4.8
+ K3= {Ind}
+ K4=0.06
+ K5=0.0000098
+ L=0
+ Is=0
+ a=0
+ L_Z0=0
+ L_EL=0
+ L_F0=0E6
+ PkZ=7158.75235
.ends MSS1038T-702_imp

*======================================================================
* SPICE Model generated by Coilcraft
* Coilcraft Part Number : MSS1038T-103
* Inductance = 10uH
*======================================================================
* Model Parameters:
*   Valid Frequency Range = 0.1MHz-40MHz
*   Ambient Temperature = 25 degC
*   Inductor Frequency Model
*   Use model for Frequency Domain simulations
*======================================================================
.subckt MSS1038T-103_freq port1 port2 PARAMS: Cpar=3.11pF Ind=10uH
X1 port1 port2 Model1A PARAMS:
+ R1=260
+ R2=0.035
+ C= {Cpar}
+ K1=0.0003
+ K2=4.8
+ K3= {Ind}
+ K4=0.078
+ K5=0.0000098
+ L=0
+ Is=0
+ a=0
+ L_Z0=0
+ L_EL=0
+ L_F0=0E6
+ PkZ=8165.09659
.ends MSS1038T-103_freq

*======================================================================
* SPICE Model generated by Coilcraft
* Coilcraft Part Number : MSS1038T-103
* Inductance = 10uH
*======================================================================
* Model Parameters:
*   Valid Frequency Range = 0.1MHz-40MHz
*   Ambient Temperature = 25 degC
*   Inductor Impedance Model
*   Use model for Time Domain simulations
*======================================================================
.subckt MSS1038T-103_imp port1 port2 PARAMS: Cpar=2.97pF Ind=10uH
X1 port1 port2 Model1D PARAMS:
+ R1=260
+ R2=0.035
+ C= {Cpar}
+ K1=0.0003
+ K2=4.8
+ K3= {Ind}
+ K4=0.078
+ K5=0.0000098
+ L=0
+ Is=0
+ a=0
+ L_Z0=0
+ L_EL=0
+ L_F0=0E6
+ PkZ=8165.09659
.ends MSS1038T-103_imp

*======================================================================
* SPICE Model generated by Coilcraft
* Coilcraft Part Number : MSS1038T-123
* Inductance = 12uH
*======================================================================
* Model Parameters:
*   Valid Frequency Range = 0.1MHz-40MHz
*   Ambient Temperature = 25 degC
*   Inductor Frequency Model
*   Use model for Frequency Domain simulations
*======================================================================
.subckt MSS1038T-123_freq port1 port2 PARAMS: Cpar=3.9pF Ind=12uH
X1 port1 port2 Model1A PARAMS:
+ R1=210
+ R2=0.041
+ C= {Cpar}
+ K1=0.0002
+ K2=5
+ K3= {Ind}
+ K4=0.088
+ K5=0.00000985
+ L=0
+ Is=0
+ a=0
+ L_Z0=0
+ L_EL=0
+ L_F0=0E6
+ PkZ=8948.75404
.ends MSS1038T-123_freq

*======================================================================
* SPICE Model generated by Coilcraft
* Coilcraft Part Number : MSS1038T-123
* Inductance = 12uH
*======================================================================
* Model Parameters:
*   Valid Frequency Range = 0.1MHz-40MHz
*   Ambient Temperature = 25 degC
*   Inductor Impedance Model
*   Use model for Time Domain simulations
*======================================================================
.subckt MSS1038T-123_imp port1 port2 PARAMS: Cpar=3.74pF Ind=12uH
X1 port1 port2 Model1D PARAMS:
+ R1=210
+ R2=0.041
+ C= {Cpar}
+ K1=0.0002
+ K2=5
+ K3= {Ind}
+ K4=0.088
+ K5=0.00000985
+ L=0
+ Is=0
+ a=0
+ L_Z0=0
+ L_EL=0
+ L_F0=0E6
+ PkZ=8948.75404
.ends MSS1038T-123_imp

*======================================================================
* SPICE Model generated by Coilcraft
* Coilcraft Part Number : MSS1038T-153
* Inductance = 15uH
*======================================================================
* Model Parameters:
*   Valid Frequency Range = 0.1MHz-30MHz
*   Ambient Temperature = 25 degC
*   Inductor Frequency Model
*   Use model for Frequency Domain simulations
*======================================================================
.subckt MSS1038T-153_freq port1 port2 PARAMS: Cpar=3.46pF Ind=15uH
X1 port1 port2 Model1A PARAMS:
+ R1=215
+ R2=0.05
+ C= {Cpar}
+ K1=0.0002
+ K2=6.45
+ K3= {Ind}
+ K4=0.12
+ K5=0.0000099
+ L=0
+ Is=0
+ a=0
+ L_Z0=0
+ L_EL=0
+ L_F0=0E6
+ PkZ=11863.9889
.ends MSS1038T-153_freq

*======================================================================
* SPICE Model generated by Coilcraft
* Coilcraft Part Number : MSS1038T-153
* Inductance = 15uH
*======================================================================
* Model Parameters:
*   Valid Frequency Range = 0.1MHz-30MHz
*   Ambient Temperature = 25 degC
*   Inductor Impedance Model
*   Use model for Time Domain simulations
*======================================================================
.subckt MSS1038T-153_imp port1 port2 PARAMS: Cpar=3.31pF Ind=15uH
X1 port1 port2 Model1D PARAMS:
+ R1=215
+ R2=0.05
+ C= {Cpar}
+ K1=0.0002
+ K2=6.45
+ K3= {Ind}
+ K4=0.12
+ K5=0.0000099
+ L=0
+ Is=0
+ a=0
+ L_Z0=0
+ L_EL=0
+ L_F0=0E6
+ PkZ=11863.9889
.ends MSS1038T-153_imp

*======================================================================
* SPICE Model generated by Coilcraft
* Coilcraft Part Number : MSS1038T-183
* Inductance = 18uH
*======================================================================
* Model Parameters:
*   Valid Frequency Range = 0.1MHz-30MHz
*   Ambient Temperature = 25 degC
*   Inductor Frequency Model
*   Use model for Frequency Domain simulations
*======================================================================
.subckt MSS1038T-183_freq port1 port2 PARAMS: Cpar=3.28pF Ind=18uH
X1 port1 port2 Model1A PARAMS:
+ R1=215
+ R2=0.065
+ C= {Cpar}
+ K1=0.0002
+ K2=6.75
+ K3= {Ind}
+ K4=0.14
+ K5=0.0000099
+ L=0
+ Is=0
+ a=0
+ L_Z0=0
+ L_EL=0
+ L_F0=0E6
+ PkZ=13698.5109
.ends MSS1038T-183_freq

*======================================================================
* SPICE Model generated by Coilcraft
* Coilcraft Part Number : MSS1038T-183
* Inductance = 18uH
*======================================================================
* Model Parameters:
*   Valid Frequency Range = 0.1MHz-30MHz
*   Ambient Temperature = 25 degC
*   Inductor Impedance Model
*   Use model for Time Domain simulations
*======================================================================
.subckt MSS1038T-183_imp port1 port2 PARAMS: Cpar=3.14pF Ind=18uH
X1 port1 port2 Model1D PARAMS:
+ R1=215
+ R2=0.065
+ C= {Cpar}
+ K1=0.0002
+ K2=6.75
+ K3= {Ind}
+ K4=0.14
+ K5=0.0000099
+ L=0
+ Is=0
+ a=0
+ L_Z0=0
+ L_EL=0
+ L_F0=0E6
+ PkZ=13698.5109
.ends MSS1038T-183_imp

*======================================================================
* SPICE Model generated by Coilcraft
* Coilcraft Part Number : MSS1038T-223
* Inductance = 22uH
*======================================================================
* Model Parameters:
*   Valid Frequency Range = 0.1MHz-30MHz
*   Ambient Temperature = 25 degC
*   Inductor Frequency Model
*   Use model for Frequency Domain simulations
*======================================================================
.subckt MSS1038T-223_freq port1 port2 PARAMS: Cpar=4.69pF Ind=22uH
X1 port1 port2 Model1A PARAMS:
+ R1=105
+ R2=0.073
+ C= {Cpar}
+ K1=0.00025
+ K2=6.75
+ K3= {Ind}
+ K4=0.15
+ K5=0.0000099
+ L=0
+ Is=0
+ a=0
+ L_Z0=0
+ L_EL=0
+ L_F0=0E6
+ PkZ=16540.3818
.ends MSS1038T-223_freq

*======================================================================
* SPICE Model generated by Coilcraft
* Coilcraft Part Number : MSS1038T-223
* Inductance = 22uH
*======================================================================
* Model Parameters:
*   Valid Frequency Range = 0.1MHz-30MHz
*   Ambient Temperature = 25 degC
*   Inductor Impedance Model
*   Use model for Time Domain simulations
*======================================================================
.subckt MSS1038T-223_imp port1 port2 PARAMS: Cpar=4.53pF Ind=22uH
X1 port1 port2 Model1D PARAMS:
+ R1=105
+ R2=0.073
+ C= {Cpar}
+ K1=0.00025
+ K2=6.75
+ K3= {Ind}
+ K4=0.15
+ K5=0.0000099
+ L=0
+ Is=0
+ a=0
+ L_Z0=0
+ L_EL=0
+ L_F0=0E6
+ PkZ=16540.3818
.ends MSS1038T-223_imp

*======================================================================
* SPICE Model generated by Coilcraft
* Coilcraft Part Number : MSS1038T-273
* Inductance = 27uH
*======================================================================
* Model Parameters:
*   Valid Frequency Range = 0.1MHz-20MHz
*   Ambient Temperature = 25 degC
*   Inductor Frequency Model
*   Use model for Frequency Domain simulations
*======================================================================
.subckt MSS1038T-273_freq port1 port2 PARAMS: Cpar=5.17pF Ind=27uH
X1 port1 port2 Model1A PARAMS:
+ R1=125
+ R2=0.089
+ C= {Cpar}
+ K1=0.00022
+ K2=10
+ K3= {Ind}
+ K4=0.23
+ K5=0.00000998
+ L=0
+ Is=0
+ a=0
+ L_Z0=0
+ L_EL=0
+ L_F0=0E6
+ PkZ=19215.5391
.ends MSS1038T-273_freq

*======================================================================
* SPICE Model generated by Coilcraft
* Coilcraft Part Number : MSS1038T-273
* Inductance = 27uH
*======================================================================
* Model Parameters:
*   Valid Frequency Range = 0.1MHz-20MHz
*   Ambient Temperature = 25 degC
*   Inductor Impedance Model
*   Use model for Time Domain simulations
*======================================================================
.subckt MSS1038T-273_imp port1 port2 PARAMS: Cpar=4.95pF Ind=27uH
X1 port1 port2 Model1D PARAMS:
+ R1=125
+ R2=0.089
+ C= {Cpar}
+ K1=0.00022
+ K2=10
+ K3= {Ind}
+ K4=0.23
+ K5=0.00000998
+ L=0
+ Is=0
+ a=0
+ L_Z0=0
+ L_EL=0
+ L_F0=0E6
+ PkZ=19215.5391
.ends MSS1038T-273_imp

*======================================================================
* SPICE Model generated by Coilcraft
* Coilcraft Part Number : MSS1038T-333
* Inductance = 33uH
*======================================================================
* Model Parameters:
*   Valid Frequency Range = 0.1MHz-20MHz
*   Ambient Temperature = 25 degC
*   Inductor Frequency Model
*   Use model for Frequency Domain simulations
*======================================================================
.subckt MSS1038T-333_freq port1 port2 PARAMS: Cpar=4.9pF Ind=33uH
X1 port1 port2 Model1A PARAMS:
+ R1=125
+ R2=0.093
+ C= {Cpar}
+ K1=0.00025
+ K2=10
+ K3= {Ind}
+ K4=0.23
+ K5=0.00000998
+ L=0
+ Is=0
+ a=0
+ L_Z0=0
+ L_EL=0
+ L_F0=0E6
+ PkZ=21126.7238
.ends MSS1038T-333_freq

*======================================================================
* SPICE Model generated by Coilcraft
* Coilcraft Part Number : MSS1038T-333
* Inductance = 33uH
*======================================================================
* Model Parameters:
*   Valid Frequency Range = 0.1MHz-20MHz
*   Ambient Temperature = 25 degC
*   Inductor Impedance Model
*   Use model for Time Domain simulations
*======================================================================
.subckt MSS1038T-333_imp port1 port2 PARAMS: Cpar=4.74pF Ind=33uH
X1 port1 port2 Model1D PARAMS:
+ R1=125
+ R2=0.093
+ C= {Cpar}
+ K1=0.00025
+ K2=10
+ K3= {Ind}
+ K4=0.23
+ K5=0.00000998
+ L=0
+ Is=0
+ a=0
+ L_Z0=0
+ L_EL=0
+ L_F0=0E6
+ PkZ=21126.7238
.ends MSS1038T-333_imp

*======================================================================
* SPICE Model generated by Coilcraft
* Coilcraft Part Number : MSS1038T-393
* Inductance = 39uH
*======================================================================
* Model Parameters:
*   Valid Frequency Range = 0.1MHz-20MHz
*   Ambient Temperature = 25 degC
*   Inductor Frequency Model
*   Use model for Frequency Domain simulations
*======================================================================
.subckt MSS1038T-393_freq port1 port2 PARAMS: Cpar=4.04pF Ind=39uH
X1 port1 port2 Model1A PARAMS:
+ R1=140
+ R2=0.112
+ C= {Cpar}
+ K1=0.0003
+ K2=11
+ K3= {Ind}
+ K4=0.29
+ K5=0.00000995
+ L=0
+ Is=0
+ a=0
+ L_Z0=0
+ L_EL=0
+ L_F0=0E6
+ PkZ=24732.7743
.ends MSS1038T-393_freq

*======================================================================
* SPICE Model generated by Coilcraft
* Coilcraft Part Number : MSS1038T-393
* Inductance = 39uH
*======================================================================
* Model Parameters:
*   Valid Frequency Range = 0.1MHz-20MHz
*   Ambient Temperature = 25 degC
*   Inductor Impedance Model
*   Use model for Time Domain simulations
*======================================================================
.subckt MSS1038T-393_imp port1 port2 PARAMS: Cpar=3.89pF Ind=39uH
X1 port1 port2 Model1D PARAMS:
+ R1=140
+ R2=0.112
+ C= {Cpar}
+ K1=0.0003
+ K2=11
+ K3= {Ind}
+ K4=0.29
+ K5=0.00000995
+ L=0
+ Is=0
+ a=0
+ L_Z0=0
+ L_EL=0
+ L_F0=0E6
+ PkZ=24732.7743
.ends MSS1038T-393_imp

*======================================================================
* SPICE Model generated by Coilcraft
* Coilcraft Part Number : MSS1038T-473
* Inductance = 47uH
*======================================================================
* Model Parameters:
*   Valid Frequency Range = 0.1MHz-20MHz
*   Ambient Temperature = 25 degC
*   Inductor Frequency Model
*   Use model for Frequency Domain simulations
*======================================================================
.subckt MSS1038T-473_freq port1 port2 PARAMS: Cpar=5.12pF Ind=47uH
X1 port1 port2 Model1A PARAMS:
+ R1=75
+ R2=0.128
+ C= {Cpar}
+ K1=0.0005
+ K2=11.5
+ K3= {Ind}
+ K4=0.57
+ K5=0.00000995
+ L=0
+ Is=0
+ a=0
+ L_Z0=0
+ L_EL=0
+ L_F0=0E6
+ PkZ=28091.3829
.ends MSS1038T-473_freq

*======================================================================
* SPICE Model generated by Coilcraft
* Coilcraft Part Number : MSS1038T-473
* Inductance = 47uH
*======================================================================
* Model Parameters:
*   Valid Frequency Range = 0.1MHz-20MHz
*   Ambient Temperature = 25 degC
*   Inductor Impedance Model
*   Use model for Time Domain simulations
*======================================================================
.subckt MSS1038T-473_imp port1 port2 PARAMS: Cpar=4.83pF Ind=47uH
X1 port1 port2 Model1D PARAMS:
+ R1=75
+ R2=0.128
+ C= {Cpar}
+ K1=0.0005
+ K2=11.5
+ K3= {Ind}
+ K4=0.57
+ K5=0.00000995
+ L=0
+ Is=0
+ a=0
+ L_Z0=0
+ L_EL=0
+ L_F0=0E6
+ PkZ=28091.3829
.ends MSS1038T-473_imp

*======================================================================
* SPICE Model generated by Coilcraft
* Coilcraft Part Number : MSS1038T-563
* Inductance = 56uH
*======================================================================
* Model Parameters:
*   Valid Frequency Range = 0.1MHz-20MHz
*   Ambient Temperature = 25 degC
*   Inductor Frequency Model
*   Use model for Frequency Domain simulations
*======================================================================
.subckt MSS1038T-563_freq port1 port2 PARAMS: Cpar=5.03pF Ind=56uH
X1 port1 port2 Model1A PARAMS:
+ R1=65
+ R2=0.18
+ C= {Cpar}
+ K1=0.0004
+ K2=14.7
+ K3= {Ind}
+ K4=0.66
+ K5=0.00001
+ L=0
+ Is=0
+ a=0
+ L_Z0=0
+ L_EL=0
+ L_F0=0E6
+ PkZ=35619.287
.ends MSS1038T-563_freq

*======================================================================
* SPICE Model generated by Coilcraft
* Coilcraft Part Number : MSS1038T-563
* Inductance = 56uH
*======================================================================
* Model Parameters:
*   Valid Frequency Range = 0.1MHz-20MHz
*   Ambient Temperature = 25 degC
*   Inductor Impedance Model
*   Use model for Time Domain simulations
*======================================================================
.subckt MSS1038T-563_imp port1 port2 PARAMS: Cpar=4.76pF Ind=56uH
X1 port1 port2 Model1D PARAMS:
+ R1=65
+ R2=0.18
+ C= {Cpar}
+ K1=0.0004
+ K2=14.7
+ K3= {Ind}
+ K4=0.66
+ K5=0.00001
+ L=0
+ Is=0
+ a=0
+ L_Z0=0
+ L_EL=0
+ L_F0=0E6
+ PkZ=35619.287
.ends MSS1038T-563_imp

*======================================================================
* SPICE Model generated by Coilcraft
* Coilcraft Part Number : MSS1038T-683
* Inductance = 68uH
*======================================================================
* Model Parameters:
*   Valid Frequency Range = 0.1MHz-20MHz
*   Ambient Temperature = 25 degC
*   Inductor Frequency Model
*   Use model for Frequency Domain simulations
*======================================================================
.subckt MSS1038T-683_freq port1 port2 PARAMS: Cpar=4.98pF Ind=68uH
X1 port1 port2 Model1A PARAMS:
+ R1=25
+ R2=0.213
+ C= {Cpar}
+ K1=0.0007
+ K2=16.3
+ K3= {Ind}
+ K4=0.842
+ K5=0.00000998
+ L=0
+ Is=0
+ a=0
+ L_Z0=0
+ L_EL=0
+ L_F0=0E6
+ PkZ=44117.0656
.ends MSS1038T-683_freq

*======================================================================
* SPICE Model generated by Coilcraft
* Coilcraft Part Number : MSS1038T-683
* Inductance = 68uH
*======================================================================
* Model Parameters:
*   Valid Frequency Range = 0.1MHz-20MHz
*   Ambient Temperature = 25 degC
*   Inductor Impedance Model
*   Use model for Time Domain simulations
*======================================================================
.subckt MSS1038T-683_imp port1 port2 PARAMS: Cpar=4.71pF Ind=68uH
X1 port1 port2 Model1D PARAMS:
+ R1=25
+ R2=0.213
+ C= {Cpar}
+ K1=0.0007
+ K2=16.3
+ K3= {Ind}
+ K4=0.842
+ K5=0.00000998
+ L=0
+ Is=0
+ a=0
+ L_Z0=0
+ L_EL=0
+ L_F0=0E6
+ PkZ=44117.0656
.ends MSS1038T-683_imp

*======================================================================
* SPICE Model generated by Coilcraft
* Coilcraft Part Number : MSS1038T-823
* Inductance = 82uH
*======================================================================
* Model Parameters:
*   Valid Frequency Range = 0.1MHz-10MHz
*   Ambient Temperature = 25 degC
*   Inductor Frequency Model
*   Use model for Frequency Domain simulations
*======================================================================
.subckt MSS1038T-823_freq port1 port2 PARAMS: Cpar=4.16pF Ind=82uH
X1 port1 port2 Model1A PARAMS:
+ R1=130
+ R2=0.261
+ C= {Cpar}
+ K1=0.00035
+ K2=24
+ K3= {Ind}
+ K4=0.842
+ K5=0.0000101
+ L=0
+ Is=0
+ a=0
+ L_Z0=0
+ L_EL=0
+ L_F0=0E6
+ PkZ=47639.045
.ends MSS1038T-823_freq

*======================================================================
* SPICE Model generated by Coilcraft
* Coilcraft Part Number : MSS1038T-823
* Inductance = 82uH
*======================================================================
* Model Parameters:
*   Valid Frequency Range = 0.1MHz-10MHz
*   Ambient Temperature = 25 degC
*   Inductor Impedance Model
*   Use model for Time Domain simulations
*======================================================================
.subckt MSS1038T-823_imp port1 port2 PARAMS: Cpar=3.97pF Ind=82uH
X1 port1 port2 Model1D PARAMS:
+ R1=130
+ R2=0.261
+ C= {Cpar}
+ K1=0.00035
+ K2=24
+ K3= {Ind}
+ K4=0.842
+ K5=0.0000101
+ L=0
+ Is=0
+ a=0
+ L_Z0=0
+ L_EL=0
+ L_F0=0E6
+ PkZ=47639.045
.ends MSS1038T-823_imp

*======================================================================
* SPICE Model generated by Coilcraft
* Coilcraft Part Number : MSS1038T-104
* Inductance = 100uH
*======================================================================
* Model Parameters:
*   Valid Frequency Range = 0.1MHz-10MHz
*   Ambient Temperature = 25 degC
*   Inductor Frequency Model
*   Use model for Frequency Domain simulations
*======================================================================
.subckt MSS1038T-104_freq port1 port2 PARAMS: Cpar=3.94pF Ind=100uH
X1 port1 port2 Model1A PARAMS:
+ R1=30
+ R2=0.304
+ C= {Cpar}
+ K1=0.00025
+ K2=24
+ K3= {Ind}
+ K4=0.693
+ K5=0.0000101
+ L=0
+ Is=0
+ a=0
+ L_Z0=0
+ L_EL=0
+ L_F0=0E6
+ PkZ=63093.6797
.ends MSS1038T-104_freq

*======================================================================
* SPICE Model generated by Coilcraft
* Coilcraft Part Number : MSS1038T-104
* Inductance = 100uH
*======================================================================
* Model Parameters:
*   Valid Frequency Range = 0.1MHz-10MHz
*   Ambient Temperature = 25 degC
*   Inductor Impedance Model
*   Use model for Time Domain simulations
*======================================================================
.subckt MSS1038T-104_imp port1 port2 PARAMS: Cpar=3.82pF Ind=100uH
X1 port1 port2 Model1D PARAMS:
+ R1=30
+ R2=0.304
+ C= {Cpar}
+ K1=0.00025
+ K2=24
+ K3= {Ind}
+ K4=0.693
+ K5=0.0000101
+ L=0
+ Is=0
+ a=0
+ L_Z0=0
+ L_EL=0
+ L_F0=0E6
+ PkZ=63093.6797
.ends MSS1038T-104_imp

*======================================================================
* SPICE Model generated by Coilcraft
* Coilcraft Part Number : MSS1038T-124
* Inductance = 120uH
*======================================================================
* Model Parameters:
*   Valid Frequency Range = 0.1MHz-10MHz
*   Ambient Temperature = 25 degC
*   Inductor Frequency Model
*   Use model for Frequency Domain simulations
*======================================================================
.subckt MSS1038T-124_freq port1 port2 PARAMS: Cpar=4.86pF Ind=120uH
X1 port1 port2 Model1A PARAMS:
+ R1=135
+ R2=0.38
+ C= {Cpar}
+ K1=0.00005
+ K2=32
+ K3= {Ind}
+ K4=0.7
+ K5=0.0000103
+ L=0
+ Is=0
+ a=0
+ L_Z0=0
+ L_EL=0
+ L_F0=0E6
+ PkZ=56482.6202
.ends MSS1038T-124_freq

*======================================================================
* SPICE Model generated by Coilcraft
* Coilcraft Part Number : MSS1038T-124
* Inductance = 120uH
*======================================================================
* Model Parameters:
*   Valid Frequency Range = 0.1MHz-10MHz
*   Ambient Temperature = 25 degC
*   Inductor Impedance Model
*   Use model for Time Domain simulations
*======================================================================
.subckt MSS1038T-124_imp port1 port2 PARAMS: Cpar=4.74pF Ind=120uH
X1 port1 port2 Model1D PARAMS:
+ R1=135
+ R2=0.38
+ C= {Cpar}
+ K1=0.00005
+ K2=32
+ K3= {Ind}
+ K4=0.7
+ K5=0.0000103
+ L=0
+ Is=0
+ a=0
+ L_Z0=0
+ L_EL=0
+ L_F0=0E6
+ PkZ=56482.6202
.ends MSS1038T-124_imp
