*======================================================================
* SPICE Model generated by Coilcraft
* Coilcraft Part Number : MSS1048T-801
* Inductance = 0.8uH
*======================================================================
* Model Parameters:
*   Valid Frequency Range = 0.1MHz-100MHz
*   Ambient Temperature = 25 degC
*   Inductor Frequency Model
*   Use model for Frequency Domain simulations
*======================================================================
.subckt MSS1048T-801_freq port1 port2 PARAMS: Cpar=1.6pF Ind=0.8uH
X1 port1 port2 Model1A PARAMS:
+ R1=375
+ R2=0.0043
+ C= {Cpar}
+ K1=0.00003
+ K2=0.7
+ K3= {Ind}
+ K4=0.023
+ K5=0.0000097
+ L=0
+ Is=0
+ a=0
+ L_Z0=0
+ L_EL=0
+ L_F0=0E6
+ PkZ=1091.11962
.ends MSS1048T-801_freq

*======================================================================
* SPICE Model generated by Coilcraft
* Coilcraft Part Number : MSS1048T-801
* Inductance = 0.8uH
*======================================================================
* Model Parameters:
*   Valid Frequency Range = 0.1MHz-100MHz
*   Ambient Temperature = 25 degC
*   Inductor Impedance Model
*   Use model for Time Domain simulations
*======================================================================
.subckt MSS1048T-801_imp port1 port2 PARAMS: Cpar=1.27pF Ind=0.8uH
X1 port1 port2 Model1D PARAMS:
+ R1=375
+ R2=0.0043
+ C= {Cpar}
+ K1=0.00003
+ K2=0.7
+ K3= {Ind}
+ K4=0.023
+ K5=0.0000097
+ L=0
+ Is=0
+ a=0
+ L_Z0=0
+ L_EL=0
+ L_F0=0E6
+ PkZ=1091.11962
.ends MSS1048T-801_imp

*======================================================================
* SPICE Model generated by Coilcraft
* Coilcraft Part Number : MSS1048T-152
* Inductance = 1.5uH
*======================================================================
* Model Parameters:
*   Valid Frequency Range = 0.1MHz-100MHz
*   Ambient Temperature = 25 degC
*   Inductor Frequency Model
*   Use model for Frequency Domain simulations
*======================================================================
.subckt MSS1048T-152_freq port1 port2 PARAMS: Cpar=1.85pF Ind=1.5uH
X1 port1 port2 Model1A PARAMS:
+ R1=325
+ R2=0.0058
+ C= {Cpar}
+ K1=0.00007
+ K2=1
+ K3= {Ind}
+ K4=0.023
+ K5=0.0000099
+ L=0
+ Is=0
+ a=0
+ L_Z0=0
+ L_EL=0
+ L_F0=0E6
+ PkZ=1945.8262
.ends MSS1048T-152_freq

*======================================================================
* SPICE Model generated by Coilcraft
* Coilcraft Part Number : MSS1048T-152
* Inductance = 1.5uH
*======================================================================
* Model Parameters:
*   Valid Frequency Range = 0.1MHz-100MHz
*   Ambient Temperature = 25 degC
*   Inductor Impedance Model
*   Use model for Time Domain simulations
*======================================================================
.subckt MSS1048T-152_imp port1 port2 PARAMS: Cpar=1.66pF Ind=1.5uH
X1 port1 port2 Model1D PARAMS:
+ R1=325
+ R2=0.0058
+ C= {Cpar}
+ K1=0.00007
+ K2=1
+ K3= {Ind}
+ K4=0.023
+ K5=0.0000099
+ L=0
+ Is=0
+ a=0
+ L_Z0=0
+ L_EL=0
+ L_F0=0E6
+ PkZ=1945.8262
.ends MSS1048T-152_imp

*======================================================================
* SPICE Model generated by Coilcraft
* Coilcraft Part Number : MSS1048T-222
* Inductance = 2.2uH
*======================================================================
* Model Parameters:
*   Valid Frequency Range = 0.1MHz-80MHz
*   Ambient Temperature = 25 degC
*   Inductor Frequency Model
*   Use model for Frequency Domain simulations
*======================================================================
.subckt MSS1048T-222_freq port1 port2 PARAMS: Cpar=3.2pF Ind=2.2uH
X1 port1 port2 Model1A PARAMS:
+ R1=175
+ R2=0.0072
+ C= {Cpar}
+ K1=0.00012
+ K2=1.2
+ K3= {Ind}
+ K4=0.023
+ K5=0.0000099
+ L=0
+ Is=0
+ a=0
+ L_Z0=0
+ L_EL=0
+ L_F0=0E6
+ PkZ=2688.11452
.ends MSS1048T-222_freq

*======================================================================
* SPICE Model generated by Coilcraft
* Coilcraft Part Number : MSS1048T-222
* Inductance = 2.2uH
*======================================================================
* Model Parameters:
*   Valid Frequency Range = 0.1MHz-80MHz
*   Ambient Temperature = 25 degC
*   Inductor Impedance Model
*   Use model for Time Domain simulations
*======================================================================
.subckt MSS1048T-222_imp port1 port2 PARAMS: Cpar=2.99pF Ind=2.2uH
X1 port1 port2 Model1D PARAMS:
+ R1=175
+ R2=0.0072
+ C= {Cpar}
+ K1=0.00012
+ K2=1.2
+ K3= {Ind}
+ K4=0.023
+ K5=0.0000099
+ L=0
+ Is=0
+ a=0
+ L_Z0=0
+ L_EL=0
+ L_F0=0E6
+ PkZ=2688.11452
.ends MSS1048T-222_imp

*======================================================================
* SPICE Model generated by Coilcraft
* Coilcraft Part Number : MSS1048T-332
* Inductance = 3.3uH
*======================================================================
* Model Parameters:
*   Valid Frequency Range = 0.1MHz-80MHz
*   Ambient Temperature = 25 degC
*   Inductor Frequency Model
*   Use model for Frequency Domain simulations
*======================================================================
.subckt MSS1048T-332_freq port1 port2 PARAMS: Cpar=2.76pF Ind=3.3uH
X1 port1 port2 Model1A PARAMS:
+ R1=200
+ R2=0.0104
+ C= {Cpar}
+ K1=0.00015
+ K2=1.6
+ K3= {Ind}
+ K4=0.023
+ K5=0.0000099
+ L=0
+ Is=0
+ a=0
+ L_Z0=0
+ L_EL=0
+ L_F0=0E6
+ PkZ=3890.55543
.ends MSS1048T-332_freq

*======================================================================
* SPICE Model generated by Coilcraft
* Coilcraft Part Number : MSS1048T-332
* Inductance = 3.3uH
*======================================================================
* Model Parameters:
*   Valid Frequency Range = 0.1MHz-80MHz
*   Ambient Temperature = 25 degC
*   Inductor Impedance Model
*   Use model for Time Domain simulations
*======================================================================
.subckt MSS1048T-332_imp port1 port2 PARAMS: Cpar=2.64pF Ind=3.3uH
X1 port1 port2 Model1D PARAMS:
+ R1=200
+ R2=0.0104
+ C= {Cpar}
+ K1=0.00015
+ K2=1.6
+ K3= {Ind}
+ K4=0.023
+ K5=0.0000099
+ L=0
+ Is=0
+ a=0
+ L_Z0=0
+ L_EL=0
+ L_F0=0E6
+ PkZ=3890.55543
.ends MSS1048T-332_imp

*======================================================================
* SPICE Model generated by Coilcraft
* Coilcraft Part Number : MSS1048T-472
* Inductance = 4.7uH
*======================================================================
* Model Parameters:
*   Valid Frequency Range = 0.1MHz-50MHz
*   Ambient Temperature = 25 degC
*   Inductor Frequency Model
*   Use model for Frequency Domain simulations
*======================================================================
.subckt MSS1048T-472_freq port1 port2 PARAMS: Cpar=5.08pF Ind=4.7uH
X1 port1 port2 Model1A PARAMS:
+ R1=110
+ R2=0.0123
+ C= {Cpar}
+ K1=0.00015
+ K2=1.95
+ K3= {Ind}
+ K4=0.026
+ K5=0.0000098
+ L=0
+ Is=0
+ a=0
+ L_Z0=0
+ L_EL=0
+ L_F0=0E6
+ PkZ=4722.7089
.ends MSS1048T-472_freq

*======================================================================
* SPICE Model generated by Coilcraft
* Coilcraft Part Number : MSS1048T-472
* Inductance = 4.7uH
*======================================================================
* Model Parameters:
*   Valid Frequency Range = 0.1MHz-50MHz
*   Ambient Temperature = 25 degC
*   Inductor Impedance Model
*   Use model for Time Domain simulations
*======================================================================
.subckt MSS1048T-472_imp port1 port2 PARAMS: Cpar=4.92pF Ind=4.7uH
X1 port1 port2 Model1D PARAMS:
+ R1=110
+ R2=0.0123
+ C= {Cpar}
+ K1=0.00015
+ K2=1.95
+ K3= {Ind}
+ K4=0.026
+ K5=0.0000098
+ L=0
+ Is=0
+ a=0
+ L_Z0=0
+ L_EL=0
+ L_F0=0E6
+ PkZ=4722.7089
.ends MSS1048T-472_imp

*======================================================================
* SPICE Model generated by Coilcraft
* Coilcraft Part Number : MSS1048T-682
* Inductance = 6.8uH
*======================================================================
* Model Parameters:
*   Valid Frequency Range = 0.1MHz-40MHz
*   Ambient Temperature = 25 degC
*   Inductor Frequency Model
*   Use model for Frequency Domain simulations
*======================================================================
.subckt MSS1048T-682_freq port1 port2 PARAMS: Cpar=4.2pF Ind=6.8uH
X1 port1 port2 Model1A PARAMS:
+ R1=150
+ R2=0.018
+ C= {Cpar}
+ K1=0.00025
+ K2=2.25
+ K3= {Ind}
+ K4=0.028
+ K5=0.0000095
+ L=0
+ Is=0
+ a=0
+ L_Z0=0
+ L_EL=0
+ L_F0=0E6
+ PkZ=5691.20276
.ends MSS1048T-682_freq

*======================================================================
* SPICE Model generated by Coilcraft
* Coilcraft Part Number : MSS1048T-682
* Inductance = 6.8uH
*======================================================================
* Model Parameters:
*   Valid Frequency Range = 0.1MHz-40MHz
*   Ambient Temperature = 25 degC
*   Inductor Impedance Model
*   Use model for Time Domain simulations
*======================================================================
.subckt MSS1048T-682_imp port1 port2 PARAMS: Cpar=4.10pF Ind=6.8uH
X1 port1 port2 Model1D PARAMS:
+ R1=150
+ R2=0.018
+ C= {Cpar}
+ K1=0.00025
+ K2=2.25
+ K3= {Ind}
+ K4=0.028
+ K5=0.0000095
+ L=0
+ Is=0
+ a=0
+ L_Z0=0
+ L_EL=0
+ L_F0=0E6
+ PkZ=5691.20276
.ends MSS1048T-682_imp

*======================================================================
* SPICE Model generated by Coilcraft
* Coilcraft Part Number : MSS1048T-822
* Inductance = 8.2uH
*======================================================================
* Model Parameters:
*   Valid Frequency Range = 0.1MHz-40MHz
*   Ambient Temperature = 25 degC
*   Inductor Frequency Model
*   Use model for Frequency Domain simulations
*======================================================================
.subckt MSS1048T-822_freq port1 port2 PARAMS: Cpar=3.9pF Ind=8.2uH
X1 port1 port2 Model1A PARAMS:
+ R1=100
+ R2=0.02
+ C= {Cpar}
+ K1=0.00025
+ K2=2.25
+ K3= {Ind}
+ K4=0.058
+ K5=0.0000097
+ L=0
+ Is=0
+ a=0
+ L_Z0=0
+ L_EL=0
+ L_F0=0E6
+ PkZ=7522.92143
.ends MSS1048T-822_freq

*======================================================================
* SPICE Model generated by Coilcraft
* Coilcraft Part Number : MSS1048T-822
* Inductance = 8.2uH
*======================================================================
* Model Parameters:
*   Valid Frequency Range = 0.1MHz-40MHz
*   Ambient Temperature = 25 degC
*   Inductor Impedance Model
*   Use model for Time Domain simulations
*======================================================================
.subckt MSS1048T-822_imp port1 port2 PARAMS: Cpar=3.75pF Ind=8.2uH
X1 port1 port2 Model1D PARAMS:
+ R1=100
+ R2=0.02
+ C= {Cpar}
+ K1=0.00025
+ K2=2.25
+ K3= {Ind}
+ K4=0.058
+ K5=0.0000097
+ L=0
+ Is=0
+ a=0
+ L_Z0=0
+ L_EL=0
+ L_F0=0E6
+ PkZ=7522.92143
.ends MSS1048T-822_imp

*======================================================================
* SPICE Model generated by Coilcraft
* Coilcraft Part Number : MSS1048T-103
* Inductance = 10uH
*======================================================================
* Model Parameters:
*   Valid Frequency Range = 0.1MHz-30MHz
*   Ambient Temperature = 25 degC
*   Inductor Frequency Model
*   Use model for Frequency Domain simulations
*======================================================================
.subckt MSS1048T-103_freq port1 port2 PARAMS: Cpar=6.6pF Ind=10uH
X1 port1 port2 Model1A PARAMS:
+ R1=82
+ R2=0.026
+ C= {Cpar}
+ K1=0.00025
+ K2=3.2
+ K3= {Ind}
+ K4=0.068
+ K5=0.0000097
+ L=0
+ Is=0
+ a=0
+ L_Z0=0
+ L_EL=0
+ L_F0=0E6
+ PkZ=7895.50267
.ends MSS1048T-103_freq

*======================================================================
* SPICE Model generated by Coilcraft
* Coilcraft Part Number : MSS1048T-103
* Inductance = 10uH
*======================================================================
* Model Parameters:
*   Valid Frequency Range = 0.1MHz-30MHz
*   Ambient Temperature = 25 degC
*   Inductor Impedance Model
*   Use model for Time Domain simulations
*======================================================================
.subckt MSS1048T-103_imp port1 port2 PARAMS: Cpar=6.36pF Ind=10uH
X1 port1 port2 Model1D PARAMS:
+ R1=82
+ R2=0.026
+ C= {Cpar}
+ K1=0.00025
+ K2=3.2
+ K3= {Ind}
+ K4=0.068
+ K5=0.0000097
+ L=0
+ Is=0
+ a=0
+ L_Z0=0
+ L_EL=0
+ L_F0=0E6
+ PkZ=7895.50267
.ends MSS1048T-103_imp

*======================================================================
* SPICE Model generated by Coilcraft
* Coilcraft Part Number : MSS1048T-153
* Inductance = 15uH
*======================================================================
* Model Parameters:
*   Valid Frequency Range = 0.1MHz-30MHz
*   Ambient Temperature = 25 degC
*   Inductor Frequency Model
*   Use model for Frequency Domain simulations
*======================================================================
.subckt MSS1048T-153_freq port1 port2 PARAMS: Cpar=5.29pF Ind=15uH
X1 port1 port2 Model1A PARAMS:
+ R1=70
+ R2=0.041
+ C= {Cpar}
+ K1=0.0002
+ K2=3.8
+ K3= {Ind}
+ K4=0.098
+ K5=0.0000098
+ L=0
+ Is=0
+ a=0
+ L_Z0=0
+ L_EL=0
+ L_F0=0E6
+ PkZ=11422.3812
.ends MSS1048T-153_freq

*======================================================================
* SPICE Model generated by Coilcraft
* Coilcraft Part Number : MSS1048T-153
* Inductance = 15uH
*======================================================================
* Model Parameters:
*   Valid Frequency Range = 0.1MHz-30MHz
*   Ambient Temperature = 25 degC
*   Inductor Impedance Model
*   Use model for Time Domain simulations
*======================================================================
.subckt MSS1048T-153_imp port1 port2 PARAMS: Cpar=5.11pF Ind=15uH
X1 port1 port2 Model1D PARAMS:
+ R1=70
+ R2=0.041
+ C= {Cpar}
+ K1=0.0002
+ K2=3.8
+ K3= {Ind}
+ K4=0.098
+ K5=0.0000098
+ L=0
+ Is=0
+ a=0
+ L_Z0=0
+ L_EL=0
+ L_F0=0E6
+ PkZ=11422.3812
.ends MSS1048T-153_imp

*======================================================================
* SPICE Model generated by Coilcraft
* Coilcraft Part Number : MSS1048T-223
* Inductance = 22uH
*======================================================================
* Model Parameters:
*   Valid Frequency Range = 0.1MHz-20MHz
*   Ambient Temperature = 25 degC
*   Inductor Frequency Model
*   Use model for Frequency Domain simulations
*======================================================================
.subckt MSS1048T-223_freq port1 port2 PARAMS: Cpar=8.6pF Ind=22uH
X1 port1 port2 Model1A PARAMS:
+ R1=62
+ R2=0.061
+ C= {Cpar}
+ K1=0.00022
+ K2=5.7
+ K3= {Ind}
+ K4=0.18
+ K5=0.0000099
+ L=0
+ Is=0
+ a=0
+ L_Z0=0
+ L_EL=0
+ L_F0=0E6
+ PkZ=13061.9485
.ends MSS1048T-223_freq

*======================================================================
* SPICE Model generated by Coilcraft
* Coilcraft Part Number : MSS1048T-223
* Inductance = 22uH
*======================================================================
* Model Parameters:
*   Valid Frequency Range = 0.1MHz-20MHz
*   Ambient Temperature = 25 degC
*   Inductor Impedance Model
*   Use model for Time Domain simulations
*======================================================================
.subckt MSS1048T-223_imp port1 port2 PARAMS: Cpar=8.27pF Ind=22uH
X1 port1 port2 Model1D PARAMS:
+ R1=62
+ R2=0.061
+ C= {Cpar}
+ K1=0.00022
+ K2=5.7
+ K3= {Ind}
+ K4=0.18
+ K5=0.0000099
+ L=0
+ Is=0
+ a=0
+ L_Z0=0
+ L_EL=0
+ L_F0=0E6
+ PkZ=13061.9485
.ends MSS1048T-223_imp

*======================================================================
* SPICE Model generated by Coilcraft
* Coilcraft Part Number : MSS1048T-333
* Inductance = 33uH
*======================================================================
* Model Parameters:
*   Valid Frequency Range = 0.1MHz-20MHz
*   Ambient Temperature = 25 degC
*   Inductor Frequency Model
*   Use model for Frequency Domain simulations
*======================================================================
.subckt MSS1048T-333_freq port1 port2 PARAMS: Cpar=8.24pF Ind=33uH
X1 port1 port2 Model1A PARAMS:
+ R1=60
+ R2=0.084
+ C= {Cpar}
+ K1=0.00024
+ K2=8.5
+ K3= {Ind}
+ K4=0.37
+ K5=0.00000697
+ L=0
+ Is=0
+ a=0
+ L_Z0=0
+ L_EL=0
+ L_F0=0E6
+ PkZ=18753.1997
.ends MSS1048T-333_freq

*======================================================================
* SPICE Model generated by Coilcraft
* Coilcraft Part Number : MSS1048T-333
* Inductance = 33uH
*======================================================================
* Model Parameters:
*   Valid Frequency Range = 0.1MHz-20MHz
*   Ambient Temperature = 25 degC
*   Inductor Impedance Model
*   Use model for Time Domain simulations
*======================================================================
.subckt MSS1048T-333_imp port1 port2 PARAMS: Cpar=7.85pF Ind=33uH
X1 port1 port2 Model1D PARAMS:
+ R1=60
+ R2=0.084
+ C= {Cpar}
+ K1=0.00024
+ K2=8.5
+ K3= {Ind}
+ K4=0.37
+ K5=0.00000697
+ L=0
+ Is=0
+ a=0
+ L_Z0=0
+ L_EL=0
+ L_F0=0E6
+ PkZ=18753.1997
.ends MSS1048T-333_imp

*======================================================================
* SPICE Model generated by Coilcraft
* Coilcraft Part Number : MSS1048T-473
* Inductance = 47uH
*======================================================================
* Model Parameters:
*   Valid Frequency Range = 0.1MHz-20MHz
*   Ambient Temperature = 25 degC
*   Inductor Frequency Model
*   Use model for Frequency Domain simulations
*======================================================================
.subckt MSS1048T-473_freq port1 port2 PARAMS: Cpar=5.17pF Ind=47uH
X1 port1 port2 Model1A PARAMS:
+ R1=45
+ R2=0.13
+ C= {Cpar}
+ K1=0.00024
+ K2=12
+ K3= {Ind}
+ K4=0.37
+ K5=0.00000697
+ L=0
+ Is=0
+ a=0
+ L_Z0=0
+ L_EL=0
+ L_F0=0E6
+ PkZ=32188.3444
.ends MSS1048T-473_freq

*======================================================================
* SPICE Model generated by Coilcraft
* Coilcraft Part Number : MSS1048T-473
* Inductance = 47uH
*======================================================================
* Model Parameters:
*   Valid Frequency Range = 0.1MHz-20MHz
*   Ambient Temperature = 25 degC
*   Inductor Impedance Model
*   Use model for Time Domain simulations
*======================================================================
.subckt MSS1048T-473_imp port1 port2 PARAMS: Cpar=5.00pF Ind=47uH
X1 port1 port2 Model1D PARAMS:
+ R1=45
+ R2=0.13
+ C= {Cpar}
+ K1=0.00024
+ K2=12
+ K3= {Ind}
+ K4=0.37
+ K5=0.00000697
+ L=0
+ Is=0
+ a=0
+ L_Z0=0
+ L_EL=0
+ L_F0=0E6
+ PkZ=32188.3444
.ends MSS1048T-473_imp

*======================================================================
* SPICE Model generated by Coilcraft
* Coilcraft Part Number : MSS1048T-563
* Inductance = 56uH
*======================================================================
* Model Parameters:
*   Valid Frequency Range = 0.1MHz-20MHz
*   Ambient Temperature = 25 degC
*   Inductor Frequency Model
*   Use model for Frequency Domain simulations
*======================================================================
.subckt MSS1048T-563_freq port1 port2 PARAMS: Cpar=5.51pF Ind=56uH
X1 port1 port2 Model1A PARAMS:
+ R1=45
+ R2=0.149
+ C= {Cpar}
+ K1=0.00028
+ K2=14
+ K3= {Ind}
+ K4=0.64
+ K5=0.00000699
+ L=0
+ Is=0
+ a=0
+ L_Z0=0
+ L_EL=0
+ L_F0=0E6
+ PkZ=35487.2606
.ends MSS1048T-563_freq

*======================================================================
* SPICE Model generated by Coilcraft
* Coilcraft Part Number : MSS1048T-563
* Inductance = 56uH
*======================================================================
* Model Parameters:
*   Valid Frequency Range = 0.1MHz-20MHz
*   Ambient Temperature = 25 degC
*   Inductor Impedance Model
*   Use model for Time Domain simulations
*======================================================================
.subckt MSS1048T-563_imp port1 port2 PARAMS: Cpar=5.25pF Ind=56uH
X1 port1 port2 Model1D PARAMS:
+ R1=45
+ R2=0.149
+ C= {Cpar}
+ K1=0.00028
+ K2=14
+ K3= {Ind}
+ K4=0.64
+ K5=0.00000699
+ L=0
+ Is=0
+ a=0
+ L_Z0=0
+ L_EL=0
+ L_F0=0E6
+ PkZ=35487.2606
.ends MSS1048T-563_imp

*======================================================================
* SPICE Model generated by Coilcraft
* Coilcraft Part Number : MSS1048T-683
* Inductance = 68uH
*======================================================================
* Model Parameters:
*   Valid Frequency Range = 0.1MHz-20MHz
*   Ambient Temperature = 25 degC
*   Inductor Frequency Model
*   Use model for Frequency Domain simulations
*======================================================================
.subckt MSS1048T-683_freq port1 port2 PARAMS: Cpar=6.5pF Ind=68uH
X1 port1 port2 Model1A PARAMS:
+ R1=50
+ R2=0.201
+ C= {Cpar}
+ K1=0.0003
+ K2=16
+ K3= {Ind}
+ K4=0.82
+ K5=0.00000704
+ L=0
+ Is=0
+ a=0
+ L_Z0=0
+ L_EL=0
+ L_F0=0E6
+ PkZ=36308.7495
.ends MSS1048T-683_freq

*======================================================================
* SPICE Model generated by Coilcraft
* Coilcraft Part Number : MSS1048T-683
* Inductance = 68uH
*======================================================================
* Model Parameters:
*   Valid Frequency Range = 0.1MHz-20MHz
*   Ambient Temperature = 25 degC
*   Inductor Impedance Model
*   Use model for Time Domain simulations
*======================================================================
.subckt MSS1048T-683_imp port1 port2 PARAMS: Cpar=6.19pF Ind=68uH
X1 port1 port2 Model1D PARAMS:
+ R1=50
+ R2=0.201
+ C= {Cpar}
+ K1=0.0003
+ K2=16
+ K3= {Ind}
+ K4=0.82
+ K5=0.00000704
+ L=0
+ Is=0
+ a=0
+ L_Z0=0
+ L_EL=0
+ L_F0=0E6
+ PkZ=36308.7495
.ends MSS1048T-683_imp

*======================================================================
* SPICE Model generated by Coilcraft
* Coilcraft Part Number : MSS1048T-823
* Inductance = 82uH
*======================================================================
* Model Parameters:
*   Valid Frequency Range = 0.1MHz-10MHz
*   Ambient Temperature = 25 degC
*   Inductor Frequency Model
*   Use model for Frequency Domain simulations
*======================================================================
.subckt MSS1048T-823_freq port1 port2 PARAMS: Cpar=7.09pF Ind=82uH
X1 port1 port2 Model1A PARAMS:
+ R1=55
+ R2=0.227
+ C= {Cpar}
+ K1=0.0004
+ K2=24
+ K3= {Ind}
+ K4=1.05
+ K5=0.00000712
+ L=0
+ Is=0
+ a=0
+ L_Z0=0
+ L_EL=0
+ L_F0=0E6
+ PkZ=47370.19
.ends MSS1048T-823_freq

*======================================================================
* SPICE Model generated by Coilcraft
* Coilcraft Part Number : MSS1048T-823
* Inductance = 82uH
*======================================================================
* Model Parameters:
*   Valid Frequency Range = 0.1MHz-10MHz
*   Ambient Temperature = 25 degC
*   Inductor Impedance Model
*   Use model for Time Domain simulations
*======================================================================
.subckt MSS1048T-823_imp port1 port2 PARAMS: Cpar=6.74pF Ind=82uH
X1 port1 port2 Model1D PARAMS:
+ R1=55
+ R2=0.227
+ C= {Cpar}
+ K1=0.0004
+ K2=24
+ K3= {Ind}
+ K4=1.05
+ K5=0.00000712
+ L=0
+ Is=0
+ a=0
+ L_Z0=0
+ L_EL=0
+ L_F0=0E6
+ PkZ=47370.19
.ends MSS1048T-823_imp

*======================================================================
* SPICE Model generated by Coilcraft
* Coilcraft Part Number : MSS1048T-104
* Inductance = 100uH
*======================================================================
* Model Parameters:
*   Valid Frequency Range = 0.1MHz-10MHz
*   Ambient Temperature = 25 degC
*   Inductor Frequency Model
*   Use model for Frequency Domain simulations
*======================================================================
.subckt MSS1048T-104_freq port1 port2 PARAMS: Cpar=8.07pF Ind=100uH
X1 port1 port2 Model1A PARAMS:
+ R1=48
+ R2=0.253
+ C= {Cpar}
+ K1=0.0009
+ K2=32
+ K3= {Ind}
+ K4=1.41
+ K5=0.00000719
+ L=0
+ Is=0
+ a=0
+ L_Z0=0
+ L_EL=0
+ L_F0=0E6
+ PkZ=57811.4929
.ends MSS1048T-104_freq

*======================================================================
* SPICE Model generated by Coilcraft
* Coilcraft Part Number : MSS1048T-104
* Inductance = 100uH
*======================================================================
* Model Parameters:
*   Valid Frequency Range = 0.1MHz-10MHz
*   Ambient Temperature = 25 degC
*   Inductor Impedance Model
*   Use model for Time Domain simulations
*======================================================================
.subckt MSS1048T-104_imp port1 port2 PARAMS: Cpar=7.65pF Ind=100uH
X1 port1 port2 Model1D PARAMS:
+ R1=48
+ R2=0.253
+ C= {Cpar}
+ K1=0.0009
+ K2=32
+ K3= {Ind}
+ K4=1.41
+ K5=0.00000719
+ L=0
+ Is=0
+ a=0
+ L_Z0=0
+ L_EL=0
+ L_F0=0E6
+ PkZ=57811.4929
.ends MSS1048T-104_imp

*======================================================================
* SPICE Model generated by Coilcraft
* Coilcraft Part Number : MSS1048T-154
* Inductance = 150uH
*======================================================================
* Model Parameters:
*   Valid Frequency Range = 0.1MHz-10MHz
*   Ambient Temperature = 25 degC
*   Inductor Frequency Model
*   Use model for Frequency Domain simulations
*======================================================================
.subckt MSS1048T-154_freq port1 port2 PARAMS: Cpar=5.6pF Ind=150uH
X1 port1 port2 Model1A PARAMS:
+ R1=43
+ R2=0.37
+ C= {Cpar}
+ K1=0.0009
+ K2=41
+ K3= {Ind}
+ K4=1.8
+ K5=0.00000725
+ L=0
+ Is=0
+ a=0
+ L_Z0=0
+ L_EL=0
+ L_F0=0E6
+ PkZ=82958.6861
.ends MSS1048T-154_freq

*======================================================================
* SPICE Model generated by Coilcraft
* Coilcraft Part Number : MSS1048T-154
* Inductance = 150uH
*======================================================================
* Model Parameters:
*   Valid Frequency Range = 0.1MHz-10MHz
*   Ambient Temperature = 25 degC
*   Inductor Impedance Model
*   Use model for Time Domain simulations
*======================================================================
.subckt MSS1048T-154_imp port1 port2 PARAMS: Cpar=5.35pF Ind=150uH
X1 port1 port2 Model1D PARAMS:
+ R1=43
+ R2=0.37
+ C= {Cpar}
+ K1=0.0009
+ K2=41
+ K3= {Ind}
+ K4=1.8
+ K5=0.00000725
+ L=0
+ Is=0
+ a=0
+ L_Z0=0
+ L_EL=0
+ L_F0=0E6
+ PkZ=82958.6861
.ends MSS1048T-154_imp

*======================================================================
* SPICE Model generated by Coilcraft
* Coilcraft Part Number : MSS1048T-184
* Inductance = 180uH
*======================================================================
* Model Parameters:
*   Valid Frequency Range = 0.1MHz-10MHz
*   Ambient Temperature = 25 degC
*   Inductor Frequency Model
*   Use model for Frequency Domain simulations
*======================================================================
.subckt MSS1048T-184_freq port1 port2 PARAMS: Cpar=6.78pF Ind=180uH
X1 port1 port2 Model1A PARAMS:
+ R1=43
+ R2=0.45
+ C= {Cpar}
+ K1=0.0015
+ K2=49
+ K3= {Ind}
+ K4=1.8
+ K5=0.00000754
+ L=0
+ Is=0
+ a=0
+ L_Z0=0
+ L_EL=0
+ L_F0=0E6
+ PkZ=88645.7847
.ends MSS1048T-184_freq

*======================================================================
* SPICE Model generated by Coilcraft
* Coilcraft Part Number : MSS1048T-184
* Inductance = 180uH
*======================================================================
* Model Parameters:
*   Valid Frequency Range = 0.1MHz-10MHz
*   Ambient Temperature = 25 degC
*   Inductor Impedance Model
*   Use model for Time Domain simulations
*======================================================================
.subckt MSS1048T-184_imp port1 port2 PARAMS: Cpar=6.54pF Ind=180uH
X1 port1 port2 Model1D PARAMS:
+ R1=43
+ R2=0.45
+ C= {Cpar}
+ K1=0.0015
+ K2=49
+ K3= {Ind}
+ K4=1.8
+ K5=0.00000754
+ L=0
+ Is=0
+ a=0
+ L_Z0=0
+ L_EL=0
+ L_F0=0E6
+ PkZ=88645.7847
.ends MSS1048T-184_imp

*======================================================================
* SPICE Model generated by Coilcraft
* Coilcraft Part Number : MSS1048T-224
* Inductance = 220uH
*======================================================================
* Model Parameters:
*   Valid Frequency Range = 0.1MHz-10MHz
*   Ambient Temperature = 25 degC
*   Inductor Frequency Model
*   Use model for Frequency Domain simulations
*======================================================================
.subckt MSS1048T-224_freq port1 port2 PARAMS: Cpar=6.46pF Ind=220uH
X1 port1 port2 Model1A PARAMS:
+ R1=52
+ R2=0.5
+ C= {Cpar}
+ K1=0.0019
+ K2=60
+ K3= {Ind}
+ K4=2.93
+ K5=0.00000747
+ L=0
+ Is=0
+ a=0
+ L_Z0=0
+ L_EL=0
+ L_F0=0E6
+ PkZ=102681.196
.ends MSS1048T-224_freq

*======================================================================
* SPICE Model generated by Coilcraft
* Coilcraft Part Number : MSS1048T-224
* Inductance = 220uH
*======================================================================
* Model Parameters:
*   Valid Frequency Range = 0.1MHz-10MHz
*   Ambient Temperature = 25 degC
*   Inductor Impedance Model
*   Use model for Time Domain simulations
*======================================================================
.subckt MSS1048T-224_imp port1 port2 PARAMS: Cpar=6.16pF Ind=220uH
X1 port1 port2 Model1D PARAMS:
+ R1=52
+ R2=0.5
+ C= {Cpar}
+ K1=0.0019
+ K2=60
+ K3= {Ind}
+ K4=2.93
+ K5=0.00000747
+ L=0
+ Is=0
+ a=0
+ L_Z0=0
+ L_EL=0
+ L_F0=0E6
+ PkZ=102681.196
.ends MSS1048T-224_imp
