*======================================================================
* SPICE Model generated by Coilcraft
* Coilcraft Part Number : MSS1278-142
* Inductance = 1.4uH
*======================================================================
* Model Parameters:
*   Valid Frequency Range = 0.1MHz-80MHz
*   Ambient Temperature = 25 degC
*   Inductor Frequency Model
*   Use model for Frequency Domain simulations
*======================================================================
.subckt MSS1278-142_freq port1 port2 PARAMS: Cpar=3.37pF Ind=1.4uH
X1 port1 port2 Model1A PARAMS:
+ R1=13
+ R2=0.011
+ C= {Cpar}
+ K1=0.0000079
+ K2=0.43
+ K3= {Ind}
+ K4=0.00524
+ K5=0.0000079
+ L=0
+ Is=0
+ a=0
+ L_Z0=0
+ L_EL=0
+ L_F0=0E6
+ PkZ=3308.40247
.ends MSS1278-142_freq

*======================================================================
* SPICE Model generated by Coilcraft
* Coilcraft Part Number : MSS1278-142
* Inductance = 1.4uH
*======================================================================
* Model Parameters:
*   Valid Frequency Range = 0.1MHz-80MHz
*   Ambient Temperature = 25 degC
*   Inductor Impedance Model
*   Use model for Time Domain simulations
*======================================================================
.subckt MSS1278-142_imp port1 port2 PARAMS: Cpar=3.29pF Ind=1.4uH
X1 port1 port2 Model1D PARAMS:
+ R1=13
+ R2=0.011
+ C= {Cpar}
+ K1=0.0000079
+ K2=0.43
+ K3= {Ind}
+ K4=0.00524
+ K5=0.0000079
+ L=0
+ Is=0
+ a=0
+ L_Z0=0
+ L_EL=0
+ L_F0=0E6
+ PkZ=3308.40247
.ends MSS1278-142_imp

*======================================================================
* SPICE Model generated by Coilcraft
* Coilcraft Part Number : MSS1278-472
* Inductance = 4.7uH
*======================================================================
* Model Parameters:
*   Valid Frequency Range = 0.1MHz-30MHz
*   Ambient Temperature = 25 degC
*   Inductor Frequency Model
*   Use model for Frequency Domain simulations
*======================================================================
.subckt MSS1278-472_freq port1 port2 PARAMS: Cpar=9.48pF Ind=4.7uH
X1 port1 port2 Model1A PARAMS:
+ R1=14
+ R2=0.02
+ C= {Cpar}
+ K1=0.000039
+ K2=1.75
+ K3= {Ind}
+ K4=0.061
+ K5=0.0000098
+ L=0
+ Is=0
+ a=0
+ L_Z0=0
+ L_EL=0
+ L_F0=0E6
+ PkZ=6863.38201
.ends MSS1278-472_freq

*======================================================================
* SPICE Model generated by Coilcraft
* Coilcraft Part Number : MSS1278-472
* Inductance = 4.7uH
*======================================================================
* Model Parameters:
*   Valid Frequency Range = 0.1MHz-30MHz
*   Ambient Temperature = 25 degC
*   Inductor Impedance Model
*   Use model for Time Domain simulations
*======================================================================
.subckt MSS1278-472_imp port1 port2 PARAMS: Cpar=8.81pF Ind=4.7uH
X1 port1 port2 Model1D PARAMS:
+ R1=14
+ R2=0.02
+ C= {Cpar}
+ K1=0.000039
+ K2=1.75
+ K3= {Ind}
+ K4=0.061
+ K5=0.0000098
+ L=0
+ Is=0
+ a=0
+ L_Z0=0
+ L_EL=0
+ L_F0=0E6
+ PkZ=6863.38201
.ends MSS1278-472_imp

*======================================================================
* SPICE Model generated by Coilcraft
* Coilcraft Part Number : MSS1278-562
* Inductance = 5.6uH
*======================================================================
* Model Parameters:
*   Valid Frequency Range = 0.1MHz-30MHz
*   Ambient Temperature = 25 degC
*   Inductor Frequency Model
*   Use model for Frequency Domain simulations
*======================================================================
.subckt MSS1278-562_freq port1 port2 PARAMS: Cpar=9.24pF Ind=5.6uH
X1 port1 port2 Model1A PARAMS:
+ R1=13
+ R2=0.023
+ C= {Cpar}
+ K1=0.000072
+ K2=1.62
+ K3= {Ind}
+ K4=0.067
+ K5=0.0000098
+ L=0
+ Is=0
+ a=0
+ L_Z0=0
+ L_EL=0
+ L_F0=0E6
+ PkZ=6553.22987
.ends MSS1278-562_freq

*======================================================================
* SPICE Model generated by Coilcraft
* Coilcraft Part Number : MSS1278-562
* Inductance = 5.6uH
*======================================================================
* Model Parameters:
*   Valid Frequency Range = 0.1MHz-30MHz
*   Ambient Temperature = 25 degC
*   Inductor Impedance Model
*   Use model for Time Domain simulations
*======================================================================
.subckt MSS1278-562_imp port1 port2 PARAMS: Cpar=8.65pF Ind=5.6uH
X1 port1 port2 Model1D PARAMS:
+ R1=13
+ R2=0.023
+ C= {Cpar}
+ K1=0.000072
+ K2=1.62
+ K3= {Ind}
+ K4=0.067
+ K5=0.0000098
+ L=0
+ Is=0
+ a=0
+ L_Z0=0
+ L_EL=0
+ L_F0=0E6
+ PkZ=6553.22987
.ends MSS1278-562_imp

*======================================================================
* SPICE Model generated by Coilcraft
* Coilcraft Part Number : MSS1278-682
* Inductance = 6.8uH
*======================================================================
* Model Parameters:
*   Valid Frequency Range = 0.1MHz-30MHz
*   Ambient Temperature = 25 degC
*   Inductor Frequency Model
*   Use model for Frequency Domain simulations
*======================================================================
.subckt MSS1278-682_freq port1 port2 PARAMS: Cpar=8.95pF Ind=6.8uH
X1 port1 port2 Model1A PARAMS:
+ R1=13
+ R2=0.024
+ C= {Cpar}
+ K1=0.000264
+ K2=2.8
+ K3= {Ind}
+ K4=0.144
+ K5=0.0000098
+ L=0
+ Is=0
+ a=0
+ L_Z0=0
+ L_EL=0
+ L_F0=0E6
+ PkZ=10217.8678
.ends MSS1278-682_freq

*======================================================================
* SPICE Model generated by Coilcraft
* Coilcraft Part Number : MSS1278-682
* Inductance = 6.8uH
*======================================================================
* Model Parameters:
*   Valid Frequency Range = 0.1MHz-30MHz
*   Ambient Temperature = 25 degC
*   Inductor Impedance Model
*   Use model for Time Domain simulations
*======================================================================
.subckt MSS1278-682_imp port1 port2 PARAMS: Cpar=7.95pF Ind=6.8uH
X1 port1 port2 Model1D PARAMS:
+ R1=13
+ R2=0.024
+ C= {Cpar}
+ K1=0.000264
+ K2=2.8
+ K3= {Ind}
+ K4=0.144
+ K5=0.0000098
+ L=0
+ Is=0
+ a=0
+ L_Z0=0
+ L_EL=0
+ L_F0=0E6
+ PkZ=10217.8678
.ends MSS1278-682_imp

*======================================================================
* SPICE Model generated by Coilcraft
* Coilcraft Part Number : MSS1278-822
* Inductance = 8.2uH
*======================================================================
* Model Parameters:
*   Valid Frequency Range = 0.1MHz-30MHz
*   Ambient Temperature = 25 degC
*   Inductor Frequency Model
*   Use model for Frequency Domain simulations
*======================================================================
.subckt MSS1278-822_freq port1 port2 PARAMS: Cpar=6.5pF Ind=8.2uH
X1 port1 port2 Model1A PARAMS:
+ R1=16
+ R2=0.028
+ C= {Cpar}
+ K1=0.000911
+ K2=3.08
+ K3= {Ind}
+ K4=0.131
+ K5=0.0000095
+ L=0
+ Is=0
+ a=0
+ L_Z0=0
+ L_EL=0
+ L_F0=0E6
+ PkZ=11675.8212
.ends MSS1278-822_freq

*======================================================================
* SPICE Model generated by Coilcraft
* Coilcraft Part Number : MSS1278-822
* Inductance = 8.2uH
*======================================================================
* Model Parameters:
*   Valid Frequency Range = 0.1MHz-30MHz
*   Ambient Temperature = 25 degC
*   Inductor Impedance Model
*   Use model for Time Domain simulations
*======================================================================
.subckt MSS1278-822_imp port1 port2 PARAMS: Cpar=5.95pF Ind=8.2uH
X1 port1 port2 Model1D PARAMS:
+ R1=16
+ R2=0.028
+ C= {Cpar}
+ K1=0.000911
+ K2=3.08
+ K3= {Ind}
+ K4=0.131
+ K5=0.0000095
+ L=0
+ Is=0
+ a=0
+ L_Z0=0
+ L_EL=0
+ L_F0=0E6
+ PkZ=11675.8212
.ends MSS1278-822_imp

*======================================================================
* SPICE Model generated by Coilcraft
* Coilcraft Part Number : MSS1278-103
* Inductance = 10uH
*======================================================================
* Model Parameters:
*   Valid Frequency Range = 0.1MHz-20MHz
*   Ambient Temperature = 25 degC
*   Inductor Frequency Model
*   Use model for Frequency Domain simulations
*======================================================================
.subckt MSS1278-103_freq port1 port2 PARAMS: Cpar=10.2pF Ind=10uH
X1 port1 port2 Model1A PARAMS:
+ R1=17
+ R2=0.03
+ C= {Cpar}
+ K1=0.000622
+ K2=4.05
+ K3= {Ind}
+ K4=0.23
+ K5=0.00000975
+ L=0
+ Is=0
+ a=0
+ L_Z0=0
+ L_EL=0
+ L_F0=0E6
+ PkZ=12063.9642
.ends MSS1278-103_freq

*======================================================================
* SPICE Model generated by Coilcraft
* Coilcraft Part Number : MSS1278-103
* Inductance = 10uH
*======================================================================
* Model Parameters:
*   Valid Frequency Range = 0.1MHz-20MHz
*   Ambient Temperature = 25 degC
*   Inductor Impedance Model
*   Use model for Time Domain simulations
*======================================================================
.subckt MSS1278-103_imp port1 port2 PARAMS: Cpar=9.02pF Ind=10uH
X1 port1 port2 Model1D PARAMS:
+ R1=17
+ R2=0.03
+ C= {Cpar}
+ K1=0.000622
+ K2=4.05
+ K3= {Ind}
+ K4=0.23
+ K5=0.00000975
+ L=0
+ Is=0
+ a=0
+ L_Z0=0
+ L_EL=0
+ L_F0=0E6
+ PkZ=12063.9642
.ends MSS1278-103_imp

*======================================================================
* SPICE Model generated by Coilcraft
* Coilcraft Part Number : MSS1278-123
* Inductance = 12uH
*======================================================================
* Model Parameters:
*   Valid Frequency Range = 0.1MHz-20MHz
*   Ambient Temperature = 25 degC
*   Inductor Frequency Model
*   Use model for Frequency Domain simulations
*======================================================================
.subckt MSS1278-123_freq port1 port2 PARAMS: Cpar=15.4pF Ind=12uH
X1 port1 port2 Model1A PARAMS:
+ R1=19
+ R2=0.032
+ C= {Cpar}
+ K1=0.00062
+ K2=6.9
+ K3= {Ind}
+ K4=0.288
+ K5=0.00000984
+ L=0
+ Is=0
+ a=0
+ L_Z0=0
+ L_EL=0
+ L_F0=0E6
+ PkZ=13923.2399
.ends MSS1278-123_freq

*======================================================================
* SPICE Model generated by Coilcraft
* Coilcraft Part Number : MSS1278-123
* Inductance = 12uH
*======================================================================
* Model Parameters:
*   Valid Frequency Range = 0.1MHz-20MHz
*   Ambient Temperature = 25 degC
*   Inductor Impedance Model
*   Use model for Time Domain simulations
*======================================================================
.subckt MSS1278-123_imp port1 port2 PARAMS: Cpar=13.65pF Ind=12uH
X1 port1 port2 Model1D PARAMS:
+ R1=19
+ R2=0.032
+ C= {Cpar}
+ K1=0.00062
+ K2=6.9
+ K3= {Ind}
+ K4=0.288
+ K5=0.00000984
+ L=0
+ Is=0
+ a=0
+ L_Z0=0
+ L_EL=0
+ L_F0=0E6
+ PkZ=13923.2399
.ends MSS1278-123_imp

*======================================================================
* SPICE Model generated by Coilcraft
* Coilcraft Part Number : MSS1278-153
* Inductance = 15uH
*======================================================================
* Model Parameters:
*   Valid Frequency Range = 0.1MHz-20MHz
*   Ambient Temperature = 25 degC
*   Inductor Frequency Model
*   Use model for Frequency Domain simulations
*======================================================================
.subckt MSS1278-153_freq port1 port2 PARAMS: Cpar=7.18pF Ind=15uH
X1 port1 port2 Model1A PARAMS:
+ R1=16
+ R2=0.038
+ C= {Cpar}
+ K1=0.000488
+ K2=5.8
+ K3= {Ind}
+ K4=0.273
+ K5=0.0000098
+ L=0
+ Is=0
+ a=0
+ L_Z0=0
+ L_EL=0
+ L_F0=0E6
+ PkZ=19065.2614
.ends MSS1278-153_freq

*======================================================================
* SPICE Model generated by Coilcraft
* Coilcraft Part Number : MSS1278-153
* Inductance = 15uH
*======================================================================
* Model Parameters:
*   Valid Frequency Range = 0.1MHz-20MHz
*   Ambient Temperature = 25 degC
*   Inductor Impedance Model
*   Use model for Time Domain simulations
*======================================================================
.subckt MSS1278-153_imp port1 port2 PARAMS: Cpar=6.52pF Ind=15uH
X1 port1 port2 Model1D PARAMS:
+ R1=16
+ R2=0.038
+ C= {Cpar}
+ K1=0.000488
+ K2=5.8
+ K3= {Ind}
+ K4=0.273
+ K5=0.0000098
+ L=0
+ Is=0
+ a=0
+ L_Z0=0
+ L_EL=0
+ L_F0=0E6
+ PkZ=19065.2614
.ends MSS1278-153_imp

*======================================================================
* SPICE Model generated by Coilcraft
* Coilcraft Part Number : MSS1278-183
* Inductance = 18uH
*======================================================================
* Model Parameters:
*   Valid Frequency Range = 0.1MHz-20MHz
*   Ambient Temperature = 25 degC
*   Inductor Frequency Model
*   Use model for Frequency Domain simulations
*======================================================================
.subckt MSS1278-183_freq port1 port2 PARAMS: Cpar=12pF Ind=18uH
X1 port1 port2 Model1A PARAMS:
+ R1=16
+ R2=0.043
+ C= {Cpar}
+ K1=0.078
+ K2=8.9
+ K3= {Ind}
+ K4=0.415
+ K5=0.00000984
+ L=0
+ Is=0
+ a=0
+ L_Z0=0
+ L_EL=0
+ L_F0=0E6
+ PkZ=4221.89909
.ends MSS1278-183_freq

*======================================================================
* SPICE Model generated by Coilcraft
* Coilcraft Part Number : MSS1278-183
* Inductance = 18uH
*======================================================================
* Model Parameters:
*   Valid Frequency Range = 0.1MHz-20MHz
*   Ambient Temperature = 25 degC
*   Inductor Impedance Model
*   Use model for Time Domain simulations
*======================================================================
.subckt MSS1278-183_imp port1 port2 PARAMS: Cpar=10.71pF Ind=18uH
X1 port1 port2 Model1D PARAMS:
+ R1=16
+ R2=0.043
+ C= {Cpar}
+ K1=0.078
+ K2=8.9
+ K3= {Ind}
+ K4=0.415
+ K5=0.00000984
+ L=0
+ Is=0
+ a=0
+ L_Z0=0
+ L_EL=0
+ L_F0=0E6
+ PkZ=4221.89909
.ends MSS1278-183_imp

*======================================================================
* SPICE Model generated by Coilcraft
* Coilcraft Part Number : MSS1278-223
* Inductance = 22uH
*======================================================================
* Model Parameters:
*   Valid Frequency Range = 0.1MHz-20MHz
*   Ambient Temperature = 25 degC
*   Inductor Frequency Model
*   Use model for Frequency Domain simulations
*======================================================================
.subckt MSS1278-223_freq port1 port2 PARAMS: Cpar=12.9pF Ind=22uH
X1 port1 port2 Model1A PARAMS:
+ R1=18
+ R2=0.05
+ C= {Cpar}
+ K1=0.00101
+ K2=11.2
+ K3= {Ind}
+ K4=0.48
+ K5=0.00000985
+ L=0
+ Is=0
+ a=0
+ L_Z0=0
+ L_EL=0
+ L_F0=0E6
+ PkZ=23748.5951
.ends MSS1278-223_freq

*======================================================================
* SPICE Model generated by Coilcraft
* Coilcraft Part Number : MSS1278-223
* Inductance = 22uH
*======================================================================
* Model Parameters:
*   Valid Frequency Range = 0.1MHz-20MHz
*   Ambient Temperature = 25 degC
*   Inductor Impedance Model
*   Use model for Time Domain simulations
*======================================================================
.subckt MSS1278-223_imp port1 port2 PARAMS: Cpar=11.62pF Ind=22uH
X1 port1 port2 Model1D PARAMS:
+ R1=18
+ R2=0.05
+ C= {Cpar}
+ K1=0.00101
+ K2=11.2
+ K3= {Ind}
+ K4=0.48
+ K5=0.00000985
+ L=0
+ Is=0
+ a=0
+ L_Z0=0
+ L_EL=0
+ L_F0=0E6
+ PkZ=23748.5951
.ends MSS1278-223_imp

*======================================================================
* SPICE Model generated by Coilcraft
* Coilcraft Part Number : MSS1278-273
* Inductance = 27uH
*======================================================================
* Model Parameters:
*   Valid Frequency Range = 0.1MHz-15MHz
*   Ambient Temperature = 25 degC
*   Inductor Frequency Model
*   Use model for Frequency Domain simulations
*======================================================================
.subckt MSS1278-273_freq port1 port2 PARAMS: Cpar=12pF Ind=27uH
X1 port1 port2 Model1A PARAMS:
+ R1=22
+ R2=0.06
+ C= {Cpar}
+ K1=0.00127
+ K2=12
+ K3= {Ind}
+ K4=0.672
+ K5=0.00000985
+ L=0
+ Is=0
+ a=0
+ L_Z0=0
+ L_EL=0
+ L_F0=0E6
+ PkZ=24886.3177
.ends MSS1278-273_freq

*======================================================================
* SPICE Model generated by Coilcraft
* Coilcraft Part Number : MSS1278-273
* Inductance = 27uH
*======================================================================
* Model Parameters:
*   Valid Frequency Range = 0.1MHz-15MHz
*   Ambient Temperature = 25 degC
*   Inductor Impedance Model
*   Use model for Time Domain simulations
*======================================================================
.subckt MSS1278-273_imp port1 port2 PARAMS: Cpar=10.67pF Ind=27uH
X1 port1 port2 Model1D PARAMS:
+ R1=22
+ R2=0.06
+ C= {Cpar}
+ K1=0.00127
+ K2=12
+ K3= {Ind}
+ K4=0.672
+ K5=0.00000985
+ L=0
+ Is=0
+ a=0
+ L_Z0=0
+ L_EL=0
+ L_F0=0E6
+ PkZ=24886.3177
.ends MSS1278-273_imp

*======================================================================
* SPICE Model generated by Coilcraft
* Coilcraft Part Number : MSS1278-333
* Inductance = 33uH
*======================================================================
* Model Parameters:
*   Valid Frequency Range = 0.1MHz-10MHz
*   Ambient Temperature = 25 degC
*   Inductor Frequency Model
*   Use model for Frequency Domain simulations
*======================================================================
.subckt MSS1278-333_freq port1 port2 PARAMS: Cpar=20.4pF Ind=33uH
X1 port1 port2 Model1A PARAMS:
+ R1=24
+ R2=0.08
+ C= {Cpar}
+ K1=0.0012
+ K2=24
+ K3= {Ind}
+ K4=0.611
+ K5=0.00000997
+ L=0
+ Is=0
+ a=0
+ L_Z0=0
+ L_EL=0
+ L_F0=0E6
+ PkZ=28908.6172
.ends MSS1278-333_freq

*======================================================================
* SPICE Model generated by Coilcraft
* Coilcraft Part Number : MSS1278-333
* Inductance = 33uH
*======================================================================
* Model Parameters:
*   Valid Frequency Range = 0.1MHz-10MHz
*   Ambient Temperature = 25 degC
*   Inductor Impedance Model
*   Use model for Time Domain simulations
*======================================================================
.subckt MSS1278-333_imp port1 port2 PARAMS: Cpar=18.85pF Ind=33uH
X1 port1 port2 Model1D PARAMS:
+ R1=24
+ R2=0.08
+ C= {Cpar}
+ K1=0.0012
+ K2=24
+ K3= {Ind}
+ K4=0.611
+ K5=0.00000997
+ L=0
+ Is=0
+ a=0
+ L_Z0=0
+ L_EL=0
+ L_F0=0E6
+ PkZ=28908.6172
.ends MSS1278-333_imp

*======================================================================
* SPICE Model generated by Coilcraft
* Coilcraft Part Number : MSS1278-393
* Inductance = 39uH
*======================================================================
* Model Parameters:
*   Valid Frequency Range = 0.1MHz-10MHz
*   Ambient Temperature = 25 degC
*   Inductor Frequency Model
*   Use model for Frequency Domain simulations
*======================================================================
.subckt MSS1278-393_freq port1 port2 PARAMS: Cpar=9.8pF Ind=39uH
X1 port1 port2 Model1A PARAMS:
+ R1=20
+ R2=0.085
+ C= {Cpar}
+ K1=0.00176
+ K2=29
+ K3= {Ind}
+ K4=0.739
+ K5=0.0000099
+ L=0
+ Is=0
+ a=0
+ L_Z0=0
+ L_EL=0
+ L_F0=0E6
+ PkZ=53409.4385
.ends MSS1278-393_freq

*======================================================================
* SPICE Model generated by Coilcraft
* Coilcraft Part Number : MSS1278-393
* Inductance = 39uH
*======================================================================
* Model Parameters:
*   Valid Frequency Range = 0.1MHz-10MHz
*   Ambient Temperature = 25 degC
*   Inductor Impedance Model
*   Use model for Time Domain simulations
*======================================================================
.subckt MSS1278-393_imp port1 port2 PARAMS: Cpar=8.98pF Ind=39uH
X1 port1 port2 Model1D PARAMS:
+ R1=20
+ R2=0.085
+ C= {Cpar}
+ K1=0.00176
+ K2=29
+ K3= {Ind}
+ K4=0.739
+ K5=0.0000099
+ L=0
+ Is=0
+ a=0
+ L_Z0=0
+ L_EL=0
+ L_F0=0E6
+ PkZ=53409.4385
.ends MSS1278-393_imp

*======================================================================
* SPICE Model generated by Coilcraft
* Coilcraft Part Number : MSS1278-473
* Inductance = 47uH
*======================================================================
* Model Parameters:
*   Valid Frequency Range = 0.1MHz-10MHz
*   Ambient Temperature = 25 degC
*   Inductor Frequency Model
*   Use model for Frequency Domain simulations
*======================================================================
.subckt MSS1278-473_freq port1 port2 PARAMS: Cpar=14.8pF Ind=47uH
X1 port1 port2 Model1A PARAMS:
+ R1=19
+ R2=0.1
+ C= {Cpar}
+ K1=0.00245
+ K2=26
+ K3= {Ind}
+ K4=1.1
+ K5=0.00000992
+ L=0
+ Is=0
+ a=0
+ L_Z0=0
+ L_EL=0
+ L_F0=0E6
+ PkZ=41574.8412
.ends MSS1278-473_freq

*======================================================================
* SPICE Model generated by Coilcraft
* Coilcraft Part Number : MSS1278-473
* Inductance = 47uH
*======================================================================
* Model Parameters:
*   Valid Frequency Range = 0.1MHz-10MHz
*   Ambient Temperature = 25 degC
*   Inductor Impedance Model
*   Use model for Time Domain simulations
*======================================================================
.subckt MSS1278-473_imp port1 port2 PARAMS: Cpar=13.38pF Ind=47uH
X1 port1 port2 Model1D PARAMS:
+ R1=19
+ R2=0.1
+ C= {Cpar}
+ K1=0.00245
+ K2=26
+ K3= {Ind}
+ K4=1.1
+ K5=0.00000992
+ L=0
+ Is=0
+ a=0
+ L_Z0=0
+ L_EL=0
+ L_F0=0E6
+ PkZ=41574.8412
.ends MSS1278-473_imp

*======================================================================
* SPICE Model generated by Coilcraft
* Coilcraft Part Number : MSS1278-563
* Inductance = 56uH
*======================================================================
* Model Parameters:
*   Valid Frequency Range = 0.1MHz-10MHz
*   Ambient Temperature = 25 degC
*   Inductor Frequency Model
*   Use model for Frequency Domain simulations
*======================================================================
.subckt MSS1278-563_freq port1 port2 PARAMS: Cpar=11.1pF Ind=56uH
X1 port1 port2 Model1A PARAMS:
+ R1=33
+ R2=0.11
+ C= {Cpar}
+ K1=0.00317
+ K2=29
+ K3= {Ind}
+ K4=1.46
+ K5=0.00000989
+ L=0
+ Is=0
+ a=0
+ L_Z0=0
+ L_EL=0
+ L_F0=0E6
+ PkZ=44542.1195
.ends MSS1278-563_freq

*======================================================================
* SPICE Model generated by Coilcraft
* Coilcraft Part Number : MSS1278-563
* Inductance = 56uH
*======================================================================
* Model Parameters:
*   Valid Frequency Range = 0.1MHz-10MHz
*   Ambient Temperature = 25 degC
*   Inductor Impedance Model
*   Use model for Time Domain simulations
*======================================================================
.subckt MSS1278-563_imp port1 port2 PARAMS: Cpar=9.90pF Ind=56uH
X1 port1 port2 Model1D PARAMS:
+ R1=33
+ R2=0.11
+ C= {Cpar}
+ K1=0.00317
+ K2=29
+ K3= {Ind}
+ K4=1.46
+ K5=0.00000989
+ L=0
+ Is=0
+ a=0
+ L_Z0=0
+ L_EL=0
+ L_F0=0E6
+ PkZ=44542.1195
.ends MSS1278-563_imp

*======================================================================
* SPICE Model generated by Coilcraft
* Coilcraft Part Number : MSS1278-683
* Inductance = 68uH
*======================================================================
* Model Parameters:
*   Valid Frequency Range = 0.1MHz-10MHz
*   Ambient Temperature = 25 degC
*   Inductor Frequency Model
*   Use model for Frequency Domain simulations
*======================================================================
.subckt MSS1278-683_freq port1 port2 PARAMS: Cpar=12.5pF Ind=68uH
X1 port1 port2 Model1A PARAMS:
+ R1=32
+ R2=0.12
+ C= {Cpar}
+ K1=0.0046
+ K2=30
+ K3= {Ind}
+ K4=2.14
+ K5=0.00000989
+ L=0
+ Is=0
+ a=0
+ L_Z0=0
+ L_EL=0
+ L_F0=0E6
+ PkZ=43667.5727
.ends MSS1278-683_freq

*======================================================================
* SPICE Model generated by Coilcraft
* Coilcraft Part Number : MSS1278-683
* Inductance = 68uH
*======================================================================
* Model Parameters:
*   Valid Frequency Range = 0.1MHz-10MHz
*   Ambient Temperature = 25 degC
*   Inductor Impedance Model
*   Use model for Time Domain simulations
*======================================================================
.subckt MSS1278-683_imp port1 port2 PARAMS: Cpar=10.93pF Ind=68uH
X1 port1 port2 Model1D PARAMS:
+ R1=32
+ R2=0.12
+ C= {Cpar}
+ K1=0.0046
+ K2=30
+ K3= {Ind}
+ K4=2.14
+ K5=0.00000989
+ L=0
+ Is=0
+ a=0
+ L_Z0=0
+ L_EL=0
+ L_F0=0E6
+ PkZ=43667.5727
.ends MSS1278-683_imp

*======================================================================
* SPICE Model generated by Coilcraft
* Coilcraft Part Number : MSS1278-823
* Inductance = 82uH
*======================================================================
* Model Parameters:
*   Valid Frequency Range = 0.1MHz-10MHz
*   Ambient Temperature = 25 degC
*   Inductor Frequency Model
*   Use model for Frequency Domain simulations
*======================================================================
.subckt MSS1278-823_freq port1 port2 PARAMS: Cpar=11.3pF Ind=82uH
X1 port1 port2 Model1A PARAMS:
+ R1=22
+ R2=0.15
+ C= {Cpar}
+ K1=0.00408
+ K2=44
+ K3= {Ind}
+ K4=2.18
+ K5=0.00000995
+ L=0
+ Is=0
+ a=0
+ L_Z0=0
+ L_EL=0
+ L_F0=0E6
+ PkZ=68718.9431
.ends MSS1278-823_freq

*======================================================================
* SPICE Model generated by Coilcraft
* Coilcraft Part Number : MSS1278-823
* Inductance = 82uH
*======================================================================
* Model Parameters:
*   Valid Frequency Range = 0.1MHz-10MHz
*   Ambient Temperature = 25 degC
*   Inductor Impedance Model
*   Use model for Time Domain simulations
*======================================================================
.subckt MSS1278-823_imp port1 port2 PARAMS: Cpar=10.11pF Ind=82uH
X1 port1 port2 Model1D PARAMS:
+ R1=22
+ R2=0.15
+ C= {Cpar}
+ K1=0.00408
+ K2=44
+ K3= {Ind}
+ K4=2.18
+ K5=0.00000995
+ L=0
+ Is=0
+ a=0
+ L_Z0=0
+ L_EL=0
+ L_F0=0E6
+ PkZ=68718.9431
.ends MSS1278-823_imp

*======================================================================
* SPICE Model generated by Coilcraft
* Coilcraft Part Number : MSS1278-104
* Inductance = 100uH
*======================================================================
* Model Parameters:
*   Valid Frequency Range = 0.1MHz-10MHz
*   Ambient Temperature = 25 degC
*   Inductor Frequency Model
*   Use model for Frequency Domain simulations
*======================================================================
.subckt MSS1278-104_freq port1 port2 PARAMS: Cpar=10.8pF Ind=100uH
X1 port1 port2 Model1A PARAMS:
+ R1=23
+ R2=0.18
+ C= {Cpar}
+ K1=0.00551
+ K2=68
+ K3= {Ind}
+ K4=2.64
+ K5=0.00000998
+ L=0
+ Is=0
+ a=0
+ L_Z0=0
+ L_EL=0
+ L_F0=0E6
+ PkZ=92677.4357
.ends MSS1278-104_freq

*======================================================================
* SPICE Model generated by Coilcraft
* Coilcraft Part Number : MSS1278-104
* Inductance = 100uH
*======================================================================
* Model Parameters:
*   Valid Frequency Range = 0.1MHz-10MHz
*   Ambient Temperature = 25 degC
*   Inductor Impedance Model
*   Use model for Time Domain simulations
*======================================================================
.subckt MSS1278-104_imp port1 port2 PARAMS: Cpar=9.69pF Ind=100uH
X1 port1 port2 Model1D PARAMS:
+ R1=23
+ R2=0.18
+ C= {Cpar}
+ K1=0.00551
+ K2=68
+ K3= {Ind}
+ K4=2.64
+ K5=0.00000998
+ L=0
+ Is=0
+ a=0
+ L_Z0=0
+ L_EL=0
+ L_F0=0E6
+ PkZ=92677.4357
.ends MSS1278-104_imp

*======================================================================
* SPICE Model generated by Coilcraft
* Coilcraft Part Number : MSS1278-124
* Inductance = 120uH
*======================================================================
* Model Parameters:
*   Valid Frequency Range = 0.1MHz-8MHz
*   Ambient Temperature = 25 degC
*   Inductor Frequency Model
*   Use model for Frequency Domain simulations
*======================================================================
.subckt MSS1278-124_freq port1 port2 PARAMS: Cpar=14.2pF Ind=120uH
X1 port1 port2 Model1A PARAMS:
+ R1=38
+ R2=0.23
+ C= {Cpar}
+ K1=0.00524
+ K2=75
+ K3= {Ind}
+ K4=2.64
+ K5=0.0000101
+ L=0
+ Is=0
+ a=0
+ L_Z0=0
+ L_EL=0
+ L_F0=0E6
+ PkZ=77513.4595
.ends MSS1278-124_freq

*======================================================================
* SPICE Model generated by Coilcraft
* Coilcraft Part Number : MSS1278-124
* Inductance = 120uH
*======================================================================
* Model Parameters:
*   Valid Frequency Range = 0.1MHz-8MHz
*   Ambient Temperature = 25 degC
*   Inductor Impedance Model
*   Use model for Time Domain simulations
*======================================================================
.subckt MSS1278-124_imp port1 port2 PARAMS: Cpar=13.06pF Ind=120uH
X1 port1 port2 Model1D PARAMS:
+ R1=38
+ R2=0.23
+ C= {Cpar}
+ K1=0.00524
+ K2=75
+ K3= {Ind}
+ K4=2.64
+ K5=0.0000101
+ L=0
+ Is=0
+ a=0
+ L_Z0=0
+ L_EL=0
+ L_F0=0E6
+ PkZ=77513.4595
.ends MSS1278-124_imp

*======================================================================
* SPICE Model generated by Coilcraft