*======================================================================
* SPICE Model generated by Coilcraft
* Coilcraft Part Number : MSS1246-102
* Inductance = 1uH
*======================================================================
* Model Parameters:
*   Valid Frequency Range = 0.1MHz-100MHz
*   Ambient Temperature = 25 degC
*   Inductor Frequency Model
*   Use model for Frequency Domain simulations
*======================================================================
.subckt MSS1246-102_freq port1 port2 PARAMS: Cpar=3.46pF Ind=1uH
X1 port1 port2 Model1A PARAMS:
+ R1=26
+ R2=0.0063
+ C= {Cpar}
+ K1=0.00013
+ K2=0.3
+ K3= {Ind}
+ K4=0.02
+ K5=0.0000096
+ L=0
+ Is=0
+ a=0
+ L_Z0=0
+ L_EL=0
+ L_F0=0E6
+ PkZ=2191.47077
.ends MSS1246-102_freq

*======================================================================
* SPICE Model generated by Coilcraft
* Coilcraft Part Number : MSS1246-102
* Inductance = 1uH
*======================================================================
* Model Parameters:
*   Valid Frequency Range = 0.1MHz-100MHz
*   Ambient Temperature = 25 degC
*   Inductor Impedance Model
*   Use model for Time Domain simulations
*======================================================================
.subckt MSS1246-102_imp port1 port2 PARAMS: Cpar=3.00pF Ind=1uH
X1 port1 port2 Model1D PARAMS:
+ R1=26
+ R2=0.0063
+ C= {Cpar}
+ K1=0.00013
+ K2=0.3
+ K3= {Ind}
+ K4=0.02
+ K5=0.0000096
+ L=0
+ Is=0
+ a=0
+ L_Z0=0
+ L_EL=0
+ L_F0=0E6
+ PkZ=2191.47077
.ends MSS1246-102_imp

*======================================================================
* SPICE Model generated by Coilcraft
* Coilcraft Part Number : MSS1246-472
* Inductance = 4.7uH
*======================================================================
* Model Parameters:
*   Valid Frequency Range = 0.1MHz-50MHz
*   Ambient Temperature = 25 degC
*   Inductor Frequency Model
*   Use model for Frequency Domain simulations
*======================================================================
.subckt MSS1246-472_freq port1 port2 PARAMS: Cpar=3.27pF Ind=4.7uH
X1 port1 port2 Model1A PARAMS:
+ R1=60
+ R2=0.022
+ C= {Cpar}
+ K1=0.00035
+ K2=2.25
+ K3= {Ind}
+ K4=0.06
+ K5=0.0000098
+ L=0
+ Is=0
+ a=0
+ L_Z0=0
+ L_EL=0
+ L_F0=0E6
+ PkZ=8679.98539
.ends MSS1246-472_freq

*======================================================================
* SPICE Model generated by Coilcraft
* Coilcraft Part Number : MSS1246-472
* Inductance = 4.7uH
*======================================================================
* Model Parameters:
*   Valid Frequency Range = 0.1MHz-50MHz
*   Ambient Temperature = 25 degC
*   Inductor Impedance Model
*   Use model for Time Domain simulations
*======================================================================
.subckt MSS1246-472_imp port1 port2 PARAMS: Cpar=3.02pF Ind=4.7uH
X1 port1 port2 Model1D PARAMS:
+ R1=60
+ R2=0.022
+ C= {Cpar}
+ K1=0.00035
+ K2=2.25
+ K3= {Ind}
+ K4=0.06
+ K5=0.0000098
+ L=0
+ Is=0
+ a=0
+ L_Z0=0
+ L_EL=0
+ L_F0=0E6
+ PkZ=8679.98539
.ends MSS1246-472_imp

*======================================================================
* SPICE Model generated by Coilcraft
* Coilcraft Part Number : MSS1246-562
* Inductance = 5.6uH
*======================================================================
* Model Parameters:
*   Valid Frequency Range = 0.1MHz-50MHz
*   Ambient Temperature = 25 degC
*   Inductor Frequency Model
*   Use model for Frequency Domain simulations
*======================================================================
.subckt MSS1246-562_freq port1 port2 PARAMS: Cpar=3.65pF Ind=5.6uH
X1 port1 port2 Model1A PARAMS:
+ R1=47
+ R2=0.025
+ C= {Cpar}
+ K1=0.00045
+ K2=2.58
+ K3= {Ind}
+ K4=0.1
+ K5=0.0000098
+ L=0
+ Is=0
+ a=0
+ L_Z0=0
+ L_EL=0
+ L_F0=0E6
+ PkZ=10027.3293
.ends MSS1246-562_freq

*======================================================================
* SPICE Model generated by Coilcraft
* Coilcraft Part Number : MSS1246-562
* Inductance = 5.6uH
*======================================================================
* Model Parameters:
*   Valid Frequency Range = 0.1MHz-50MHz
*   Ambient Temperature = 25 degC
*   Inductor Impedance Model
*   Use model for Time Domain simulations
*======================================================================
.subckt MSS1246-562_imp port1 port2 PARAMS: Cpar=3.27pF Ind=5.6uH
X1 port1 port2 Model1D PARAMS:
+ R1=47
+ R2=0.025
+ C= {Cpar}
+ K1=0.00045
+ K2=2.58
+ K3= {Ind}
+ K4=0.1
+ K5=0.0000098
+ L=0
+ Is=0
+ a=0
+ L_Z0=0
+ L_EL=0
+ L_F0=0E6
+ PkZ=10027.3293
.ends MSS1246-562_imp

*======================================================================
* SPICE Model generated by Coilcraft
* Coilcraft Part Number : MSS1246-682
* Inductance = 6.8uH
*======================================================================
* Model Parameters:
*   Valid Frequency Range = 0.1MHz-40MHz
*   Ambient Temperature = 25 degC
*   Inductor Frequency Model
*   Use model for Frequency Domain simulations
*======================================================================
.subckt MSS1246-682_freq port1 port2 PARAMS: Cpar=4.03pF Ind=6.8uH
X1 port1 port2 Model1A PARAMS:
+ R1=36
+ R2=0.032
+ C= {Cpar}
+ K1=0.00055
+ K2=3.15
+ K3= {Ind}
+ K4=0.14
+ K5=0.0000098
+ L=0
+ Is=0
+ a=0
+ L_Z0=0
+ L_EL=0
+ L_F0=0E6
+ PkZ=12182.5625
.ends MSS1246-682_freq

*======================================================================
* SPICE Model generated by Coilcraft
* Coilcraft Part Number : MSS1246-682
* Inductance = 6.8uH
*======================================================================
* Model Parameters:
*   Valid Frequency Range = 0.1MHz-40MHz
*   Ambient Temperature = 25 degC
*   Inductor Impedance Model
*   Use model for Time Domain simulations
*======================================================================
.subckt MSS1246-682_imp port1 port2 PARAMS: Cpar=3.56pF Ind=6.8uH
X1 port1 port2 Model1D PARAMS:
+ R1=36
+ R2=0.032
+ C= {Cpar}
+ K1=0.00055
+ K2=3.15
+ K3= {Ind}
+ K4=0.14
+ K5=0.0000098
+ L=0
+ Is=0
+ a=0
+ L_Z0=0
+ L_EL=0
+ L_F0=0E6
+ PkZ=12182.5625
.ends MSS1246-682_imp

*======================================================================
* SPICE Model generated by Coilcraft
* Coilcraft Part Number : MSS1246-822
* Inductance = 8.2uH
*======================================================================
* Model Parameters:
*   Valid Frequency Range = 0.1MHz-40MHz
*   Ambient Temperature = 25 degC
*   Inductor Frequency Model
*   Use model for Frequency Domain simulations
*======================================================================
.subckt MSS1246-822_freq port1 port2 PARAMS: Cpar=4.06pF Ind=8.2uH
X1 port1 port2 Model1A PARAMS:
+ R1=32
+ R2=0.035
+ C= {Cpar}
+ K1=0.0009
+ K2=3.5
+ K3= {Ind}
+ K4=0.17
+ K5=0.00000975
+ L=0
+ Is=0
+ a=0
+ L_Z0=0
+ L_EL=0
+ L_F0=0E6
+ PkZ=13621.0803
.ends MSS1246-822_freq

*======================================================================
* SPICE Model generated by Coilcraft
* Coilcraft Part Number : MSS1246-822
* Inductance = 8.2uH
*======================================================================
* Model Parameters:
*   Valid Frequency Range = 0.1MHz-40MHz
*   Ambient Temperature = 25 degC
*   Inductor Impedance Model
*   Use model for Time Domain simulations
*======================================================================
.subckt MSS1246-822_imp port1 port2 PARAMS: Cpar=3.59pF Ind=8.2uH
X1 port1 port2 Model1D PARAMS:
+ R1=32
+ R2=0.035
+ C= {Cpar}
+ K1=0.0009
+ K2=3.5
+ K3= {Ind}
+ K4=0.17
+ K5=0.00000975
+ L=0
+ Is=0
+ a=0
+ L_Z0=0
+ L_EL=0
+ L_F0=0E6
+ PkZ=13621.0803
.ends MSS1246-822_imp

*======================================================================
* SPICE Model generated by Coilcraft
* Coilcraft Part Number : MSS1246-103
* Inductance = 10uH
*======================================================================
* Model Parameters:
*   Valid Frequency Range = 0.1MHz-40MHz
*   Ambient Temperature = 25 degC
*   Inductor Frequency Model
*   Use model for Frequency Domain simulations
*======================================================================
.subckt MSS1246-103_freq port1 port2 PARAMS: Cpar=4.07pF Ind=10uH
X1 port1 port2 Model1A PARAMS:
+ R1=44
+ R2=0.042
+ C= {Cpar}
+ K1=0.0008
+ K2=5.5
+ K3= {Ind}
+ K4=0.17
+ K5=0.00000985
+ L=0
+ Is=0
+ a=0
+ L_Z0=0
+ L_EL=0
+ L_F0=0E6
+ PkZ=17509.178
.ends MSS1246-103_freq

*======================================================================
* SPICE Model generated by Coilcraft
* Coilcraft Part Number : MSS1246-103
* Inductance = 10uH
*======================================================================
* Model Parameters:
*   Valid Frequency Range = 0.1MHz-40MHz
*   Ambient Temperature = 25 degC
*   Inductor Impedance Model
*   Use model for Time Domain simulations
*======================================================================
.subckt MSS1246-103_imp port1 port2 PARAMS: Cpar=3.69pF Ind=10uH
X1 port1 port2 Model1D PARAMS:
+ R1=44
+ R2=0.042
+ C= {Cpar}
+ K1=0.0008
+ K2=5.5
+ K3= {Ind}
+ K4=0.17
+ K5=0.00000985
+ L=0
+ Is=0
+ a=0
+ L_Z0=0
+ L_EL=0
+ L_F0=0E6
+ PkZ=17509.178
.ends MSS1246-103_imp

*======================================================================
* SPICE Model generated by Coilcraft
* Coilcraft Part Number : MSS1246-123
* Inductance = 12uH
*======================================================================
* Model Parameters:
*   Valid Frequency Range = 0.1MHz-30MHz
*   Ambient Temperature = 25 degC
*   Inductor Frequency Model
*   Use model for Frequency Domain simulations
*======================================================================
.subckt MSS1246-123_freq port1 port2 PARAMS: Cpar=4.23pF Ind=12uH
X1 port1 port2 Model1A PARAMS:
+ R1=42
+ R2=0.045
+ C= {Cpar}
+ K1=0.0009
+ K2=6
+ K3= {Ind}
+ K4=0.25
+ K5=0.00000985
+ L=0
+ Is=0
+ a=0
+ L_Z0=0
+ L_EL=0
+ L_F0=0E6
+ PkZ=18990.8764
.ends MSS1246-123_freq

*======================================================================
* SPICE Model generated by Coilcraft
* Coilcraft Part Number : MSS1246-123
* Inductance = 12uH
*======================================================================
* Model Parameters:
*   Valid Frequency Range = 0.1MHz-30MHz
*   Ambient Temperature = 25 degC
*   Inductor Impedance Model
*   Use model for Time Domain simulations
*======================================================================
.subckt MSS1246-123_imp port1 port2 PARAMS: Cpar=3.75pF Ind=12uH
X1 port1 port2 Model1D PARAMS:
+ R1=42
+ R2=0.045
+ C= {Cpar}
+ K1=0.0009
+ K2=6
+ K3= {Ind}
+ K4=0.25
+ K5=0.00000985
+ L=0
+ Is=0
+ a=0
+ L_Z0=0
+ L_EL=0
+ L_F0=0E6
+ PkZ=18990.8764
.ends MSS1246-123_imp

*======================================================================
* SPICE Model generated by Coilcraft
* Coilcraft Part Number : MSS1246-153
* Inductance = 15uH
*======================================================================
* Model Parameters:
*   Valid Frequency Range = 0.1MHz-30MHz
*   Ambient Temperature = 25 degC
*   Inductor Frequency Model
*   Use model for Frequency Domain simulations
*======================================================================
.subckt MSS1246-153_freq port1 port2 PARAMS: Cpar=4.37pF Ind=15uH
X1 port1 port2 Model1A PARAMS:
+ R1=55
+ R2=0.056
+ C= {Cpar}
+ K1=0.0011
+ K2=9
+ K3= {Ind}
+ K4=0.29
+ K5=0.00000987
+ L=0
+ Is=0
+ a=0
+ L_Z0=0
+ L_EL=0
+ L_F0=0E6
+ PkZ=22797.3142
.ends MSS1246-153_freq

*======================================================================
* SPICE Model generated by Coilcraft
* Coilcraft Part Number : MSS1246-153
* Inductance = 15uH
*======================================================================
* Model Parameters:
*   Valid Frequency Range = 0.1MHz-30MHz
*   Ambient Temperature = 25 degC
*   Inductor Impedance Model
*   Use model for Time Domain simulations
*======================================================================
.subckt MSS1246-153_imp port1 port2 PARAMS: Cpar=3.92pF Ind=15uH
X1 port1 port2 Model1D PARAMS:
+ R1=55
+ R2=0.056
+ C= {Cpar}
+ K1=0.0011
+ K2=9
+ K3= {Ind}
+ K4=0.29
+ K5=0.00000987
+ L=0
+ Is=0
+ a=0
+ L_Z0=0
+ L_EL=0
+ L_F0=0E6
+ PkZ=22797.3142
.ends MSS1246-153_imp

*======================================================================
* SPICE Model generated by Coilcraft
* Coilcraft Part Number : MSS1246-183
* Inductance = 18uH
*======================================================================
* Model Parameters:
*   Valid Frequency Range = 0.1MHz-20MHz
*   Ambient Temperature = 25 degC
*   Inductor Frequency Model
*   Use model for Frequency Domain simulations
*======================================================================
.subckt MSS1246-183_freq port1 port2 PARAMS: Cpar=4.14pF Ind=18uH
X1 port1 port2 Model1A PARAMS:
+ R1=65
+ R2=0.062
+ C= {Cpar}
+ K1=0.0014
+ K2=10
+ K3= {Ind}
+ K4=0.31
+ K5=0.00000985
+ L=0
+ Is=0
+ a=0
+ L_Z0=0
+ L_EL=0
+ L_F0=0E6
+ PkZ=24556.7575
.ends MSS1246-183_freq

*======================================================================
* SPICE Model generated by Coilcraft
* Coilcraft Part Number : MSS1246-183
* Inductance = 18uH
*======================================================================
* Model Parameters:
*   Valid Frequency Range = 0.1MHz-20MHz
*   Ambient Temperature = 25 degC
*   Inductor Impedance Model
*   Use model for Time Domain simulations
*======================================================================
.subckt MSS1246-183_imp port1 port2 PARAMS: Cpar=3.77pF Ind=18uH
X1 port1 port2 Model1D PARAMS:
+ R1=65
+ R2=0.062
+ C= {Cpar}
+ K1=0.0014
+ K2=10
+ K3= {Ind}
+ K4=0.31
+ K5=0.00000985
+ L=0
+ Is=0
+ a=0
+ L_Z0=0
+ L_EL=0
+ L_F0=0E6
+ PkZ=24556.7575
.ends MSS1246-183_imp

*======================================================================
* SPICE Model generated by Coilcraft
* Coilcraft Part Number : MSS1246-223
* Inductance = 22uH
*======================================================================
* Model Parameters:
*   Valid Frequency Range = 0.1MHz-20MHz
*   Ambient Temperature = 25 degC
*   Inductor Frequency Model
*   Use model for Frequency Domain simulations
*======================================================================
.subckt MSS1246-223_freq port1 port2 PARAMS: Cpar=4.06pF Ind=22uH
X1 port1 port2 Model1A PARAMS:
+ R1=52
+ R2=0.07
+ C= {Cpar}
+ K1=0.00144
+ K2=11
+ K3= {Ind}
+ K4=0.48
+ K5=0.00000988
+ L=0
+ Is=0
+ a=0
+ L_Z0=0
+ L_EL=0
+ L_F0=0E6
+ PkZ=29776.5723
.ends MSS1246-223_freq

*======================================================================
* SPICE Model generated by Coilcraft
* Coilcraft Part Number : MSS1246-223
* Inductance = 22uH
*======================================================================
* Model Parameters:
*   Valid Frequency Range = 0.1MHz-20MHz
*   Ambient Temperature = 25 degC
*   Inductor Impedance Model
*   Use model for Time Domain simulations
*======================================================================
.subckt MSS1246-223_imp port1 port2 PARAMS: Cpar=3.61pF Ind=22uH
X1 port1 port2 Model1D PARAMS:
+ R1=52
+ R2=0.07
+ C= {Cpar}
+ K1=0.00144
+ K2=11
+ K3= {Ind}
+ K4=0.48
+ K5=0.00000988
+ L=0
+ Is=0
+ a=0
+ L_Z0=0
+ L_EL=0
+ L_F0=0E6
+ PkZ=29776.5723
.ends MSS1246-223_imp

*======================================================================
* SPICE Model generated by Coilcraft
* Coilcraft Part Number : MSS1246-273
* Inductance = 27uH
*======================================================================
* Model Parameters:
*   Valid Frequency Range = 0.1MHz-20MHz
*   Ambient Temperature = 25 degC
*   Inductor Frequency Model
*   Use model for Frequency Domain simulations
*======================================================================
.subckt MSS1246-273_freq port1 port2 PARAMS: Cpar=4.17pF Ind=27uH
X1 port1 port2 Model1A PARAMS:
+ R1=47
+ R2=0.08
+ C= {Cpar}
+ K1=0.0019
+ K2=12
+ K3= {Ind}
+ K4=0.69
+ K5=0.00000988
+ L=0
+ Is=0
+ a=0
+ L_Z0=0
+ L_EL=0
+ L_F0=0E6
+ PkZ=32805.0735
.ends MSS1246-273_freq

*======================================================================
* SPICE Model generated by Coilcraft
* Coilcraft Part Number : MSS1246-273
* Inductance = 27uH
*======================================================================
* Model Parameters:
*   Valid Frequency Range = 0.1MHz-20MHz
*   Ambient Temperature = 25 degC
*   Inductor Impedance Model
*   Use model for Time Domain simulations
*======================================================================
.subckt MSS1246-273_imp port1 port2 PARAMS: Cpar=3.64pF Ind=27uH
X1 port1 port2 Model1D PARAMS:
+ R1=47
+ R2=0.08
+ C= {Cpar}
+ K1=0.0019
+ K2=12
+ K3= {Ind}
+ K4=0.69
+ K5=0.00000988
+ L=0
+ Is=0
+ a=0
+ L_Z0=0
+ L_EL=0
+ L_F0=0E6
+ PkZ=32805.0735
.ends MSS1246-273_imp

*======================================================================
* SPICE Model generated by Coilcraft
* Coilcraft Part Number : MSS1246-333
* Inductance = 33uH
*======================================================================
* Model Parameters:
*   Valid Frequency Range = 0.1MHz-20MHz
*   Ambient Temperature = 25 degC
*   Inductor Frequency Model
*   Use model for Frequency Domain simulations
*======================================================================
.subckt MSS1246-333_freq port1 port2 PARAMS: Cpar=4.3pF Ind=33uH
X1 port1 port2 Model1A PARAMS:
+ R1=48
+ R2=0.1
+ C= {Cpar}
+ K1=0.002
+ K2=15
+ K3= {Ind}
+ K4=0.69
+ K5=0.00000989
+ L=0
+ Is=0
+ a=0
+ L_Z0=0
+ L_EL=0
+ L_F0=0E6
+ PkZ=38733.8096
.ends MSS1246-333_freq

*======================================================================
* SPICE Model generated by Coilcraft
* Coilcraft Part Number : MSS1246-333
* Inductance = 33uH
*======================================================================
* Model Parameters:
*   Valid Frequency Range = 0.1MHz-20MHz
*   Ambient Temperature = 25 degC
*   Inductor Impedance Model
*   Use model for Time Domain simulations
*======================================================================
.subckt MSS1246-333_imp port1 port2 PARAMS: Cpar=3.86pF Ind=33uH
X1 port1 port2 Model1D PARAMS:
+ R1=48
+ R2=0.1
+ C= {Cpar}
+ K1=0.002
+ K2=15
+ K3= {Ind}
+ K4=0.69
+ K5=0.00000989
+ L=0
+ Is=0
+ a=0
+ L_Z0=0
+ L_EL=0
+ L_F0=0E6
+ PkZ=38733.8096
.ends MSS1246-333_imp

*======================================================================
* SPICE Model generated by Coilcraft
* Coilcraft Part Number : MSS1246-393
* Inductance = 39uH
*======================================================================
* Model Parameters:
*   Valid Frequency Range = 0.1MHz-20MHz
*   Ambient Temperature = 25 degC
*   Inductor Frequency Model
*   Use model for Frequency Domain simulations
*======================================================================
.subckt MSS1246-393_freq port1 port2 PARAMS: Cpar=4.13pF Ind=39uH
X1 port1 port2 Model1A PARAMS:
+ R1=28
+ R2=0.12
+ C= {Cpar}
+ K1=0.00205
+ K2=15
+ K3= {Ind}
+ K4=1.18
+ K5=0.00000992
+ L=0
+ Is=0
+ a=0
+ L_Z0=0
+ L_EL=0
+ L_F0=0E6
+ PkZ=44377.8424
.ends MSS1246-393_freq

*======================================================================
* SPICE Model generated by Coilcraft
* Coilcraft Part Number : MSS1246-393
* Inductance = 39uH
*======================================================================
* Model Parameters:
*   Valid Frequency Range = 0.1MHz-20MHz
*   Ambient Temperature = 25 degC
*   Inductor Impedance Model
*   Use model for Time Domain simulations
*======================================================================
.subckt MSS1246-393_imp port1 port2 PARAMS: Cpar=3.53pF Ind=39uH
X1 port1 port2 Model1D PARAMS:
+ R1=28
+ R2=0.12
+ C= {Cpar}
+ K1=0.00205
+ K2=15
+ K3= {Ind}
+ K4=1.18
+ K5=0.00000992
+ L=0
+ Is=0
+ a=0
+ L_Z0=0
+ L_EL=0
+ L_F0=0E6
+ PkZ=44377.8424
.ends MSS1246-393_imp

*======================================================================
* SPICE Model generated by Coilcraft
* Coilcraft Part Number : MSS1246-473
* Inductance = 47uH
*======================================================================
* Model Parameters:
*   Valid Frequency Range = 0.1MHz-20MHz
*   Ambient Temperature = 25 degC
*   Inductor Frequency Model
*   Use model for Frequency Domain simulations
*======================================================================
.subckt MSS1246-473_freq port1 port2 PARAMS: Cpar=4.38pF Ind=47uH
X1 port1 port2 Model1A PARAMS:
+ R1=27
+ R2=0.15
+ C= {Cpar}
+ K1=0.00208
+ K2=19
+ K3= {Ind}
+ K4=1.33
+ K5=0.00000994
+ L=0
+ Is=0
+ a=0
+ L_Z0=0
+ L_EL=0
+ L_F0=0E6
+ PkZ=52791.6828
.ends MSS1246-473_freq

*======================================================================
* SPICE Model generated by Coilcraft
* Coilcraft Part Number : MSS1246-473
* Inductance = 47uH
*======================================================================
* Model Parameters:
*   Valid Frequency Range = 0.1MHz-20MHz
*   Ambient Temperature = 25 degC
*   Inductor Impedance Model
*   Use model for Time Domain simulations
*======================================================================
.subckt MSS1246-473_imp port1 port2 PARAMS: Cpar=3.80pF Ind=47uH
X1 port1 port2 Model1D PARAMS:
+ R1=27
+ R2=0.15
+ C= {Cpar}
+ K1=0.00208
+ K2=19
+ K3= {Ind}
+ K4=1.33
+ K5=0.00000994
+ L=0
+ Is=0
+ a=0
+ L_Z0=0
+ L_EL=0
+ L_F0=0E6
+ PkZ=52791.6828
.ends MSS1246-473_imp

*======================================================================
* SPICE Model generated by Coilcraft
* Coilcraft Part Number : MSS1246-563
* Inductance = 56uH
*======================================================================
* Model Parameters:
*   Valid Frequency Range = 0.1MHz-20MHz
*   Ambient Temperature = 25 degC
*   Inductor Frequency Model
*   Use model for Frequency Domain simulations
*======================================================================
.subckt MSS1246-563_freq port1 port2 PARAMS: Cpar=4.35pF Ind=56uH
X1 port1 port2 Model1A PARAMS:
+ R1=35
+ R2=0.17
+ C= {Cpar}
+ K1=0.00214
+ K2=23
+ K3= {Ind}
+ K4=1.7
+ K5=0.00000996
+ L=0
+ Is=0
+ a=0
+ L_Z0=0
+ L_EL=0
+ L_F0=0E6
+ PkZ=59039.513
.ends MSS1246-563_freq

*======================================================================
* SPICE Model generated by Coilcraft
* Coilcraft Part Number : MSS1246-563
* Inductance = 56uH
*======================================================================
* Model Parameters:
*   Valid Frequency Range = 0.1MHz-20MHz
*   Ambient Temperature = 25 degC
*   Inductor Impedance Model
*   Use model for Time Domain simulations
*======================================================================
.subckt MSS1246-563_imp port1 port2 PARAMS: Cpar=3.74pF Ind=56uH
X1 port1 port2 Model1D PARAMS:
+ R1=35
+ R2=0.17
+ C= {Cpar}
+ K1=0.00214
+ K2=23
+ K3= {Ind}
+ K4=1.7
+ K5=0.00000996
+ L=0
+ Is=0
+ a=0
+ L_Z0=0
+ L_EL=0
+ L_F0=0E6
+ PkZ=59039.513
.ends MSS1246-563_imp

*======================================================================
* SPICE Model generated by Coilcraft
* Coilcraft Part Number : MSS1246-683
* Inductance = 68uH
*======================================================================
* Model Parameters:
*   Valid Frequency Range = 0.1MHz-10MHz
*   Ambient Temperature = 25 degC
*   Inductor Frequency Model
*   Use model for Frequency Domain simulations
*======================================================================
.subckt MSS1246-683_freq port1 port2 PARAMS: Cpar=5.62pF Ind=68uH
X1 port1 port2 Model1A PARAMS:
+ R1=38
+ R2=0.22
+ C= {Cpar}
+ K1=0.0022
+ K2=29
+ K3= {Ind}
+ K4=1.9
+ K5=0.00000999
+ L=0
+ Is=0
+ a=0
+ L_Z0=0
+ L_EL=0
+ L_F0=0E6
+ PkZ=62877.4244
.ends MSS1246-683_freq

*======================================================================
* SPICE Model generated by Coilcraft
* Coilcraft Part Number : MSS1246-683
* Inductance = 68uH
*======================================================================
* Model Parameters:
*   Valid Frequency Range = 0.1MHz-10MHz
*   Ambient Temperature = 25 degC
*   Inductor Impedance Model
*   Use model for Time Domain simulations
*======================================================================
.subckt MSS1246-683_imp port1 port2 PARAMS: Cpar=4.93pF Ind=68uH
X1 port1 port2 Model1D PARAMS:
+ R1=38
+ R2=0.22
+ C= {Cpar}
+ K1=0.0022
+ K2=29
+ K3= {Ind}
+ K4=1.9
+ K5=0.00000999
+ L=0
+ Is=0
+ a=0
+ L_Z0=0
+ L_EL=0
+ L_F0=0E6
+ PkZ=62877.4244
.ends MSS1246-683_imp

*======================================================================
* SPICE Model generated by Coilcraft
* Coilcraft Part Number : MSS1246-823
* Inductance = 82uH
*======================================================================
* Model Parameters:
*   Valid Frequency Range = 0.1MHz-10MHz
*   Ambient Temperature = 25 degC
*   Inductor Frequency Model
*   Use model for Frequency Domain simulations
*======================================================================
.subckt MSS1246-823_freq port1 port2 PARAMS: Cpar=5.53pF Ind=82uH
X1 port1 port2 Model1A PARAMS:
+ R1=32
+ R2=0.25
+ C= {Cpar}
+ K1=0.0028
+ K2=32
+ K3= {Ind}
+ K4=2.3
+ K5=0.00000999
+ L=0
+ Is=0
+ a=0
+ L_Z0=0
+ L_EL=0
+ L_F0=0E6
+ PkZ=70699.6512
.ends MSS1246-823_freq

*======================================================================
* SPICE Model generated by Coilcraft
* Coilcraft Part Number : MSS1246-823
* Inductance = 82uH
*======================================================================
* Model Parameters:
*   Valid Frequency Range = 0.1MHz-10MHz
*   Ambient Temperature = 25 degC
*   Inductor Impedance Model
*   Use model for Time Domain simulations
*======================================================================
.subckt MSS1246-823_imp port1 port2 PARAMS: Cpar=4.86pF Ind=82uH
X1 port1 port2 Model1D PARAMS:
+ R1=32
+ R2=0.25
+ C= {Cpar}
+ K1=0.0028
+ K2=32
+ K3= {Ind}
+ K4=2.3
+ K5=0.00000999
+ L=0
+ Is=0
+ a=0
+ L_Z0=0
+ L_EL=0
+ L_F0=0E6
+ PkZ=70699.6512
.ends MSS1246-823_imp

*======================================================================
* SPICE Model generated by Coilcraft
* Coilcraft Part Number : MSS1246-104
* Inductance = 100uH
*======================================================================
* Model Parameters:
*   Valid Frequency Range = 0.1MHz-10MHz
*   Ambient Temperature = 25 degC
*   Inductor Frequency Model
*   Use model for Frequency Domain simulations
*======================================================================
.subckt MSS1246-104_freq port1 port2 PARAMS: Cpar=5.34pF Ind=100uH
X1 port1 port2 Model1A PARAMS:
+ R1=40
+ R2=0.28
+ C= {Cpar}
+ K1=0.0034
+ K2=37
+ K3= {Ind}
+ K4=2.5
+ K5=0.00001
+ L=0
+ Is=0
+ a=0
+ L_Z0=0
+ L_EL=0
+ L_F0=0E6
+ PkZ=77166.3055
.ends MSS1246-104_freq

*======================================================================
* SPICE Model generated by Coilcraft
* Coilcraft Part Number : MSS1246-104
* Inductance = 100uH
*======================================================================
* Model Parameters:
*   Valid Frequency Range = 0.1MHz-10MHz
*   Ambient Temperature = 25 degC
*   Inductor Impedance Model
*   Use model for Time Domain simulations
*======================================================================
.subckt MSS1246-104_imp port1 port2 PARAMS: Cpar=4.77pF Ind=100uH
X1 port1 port2 Model1D PARAMS:
+ R1=40
+ R2=0.28
+ C= {Cpar}
+ K1=0.0034
+ K2=37
+ K3= {Ind}
+ K4=2.5
+ K5=0.00001
+ L=0
+ Is=0
+ a=0
+ L_Z0=0
+ L_EL=0
+ L_F0=0E6
+ PkZ=77166.3055
.ends MSS1246-104_imp

*======================================================================
* SPICE Model generated by Coilcraft
* Coilcraft Part Number : MSS1246-124
* Inductance = 120uH
*======================================================================
* Model Parameters:
*   Valid Frequency Range = 0.1MHz-10MHz
*   Ambient Temperature = 25 degC
*   Inductor Frequency Model
*   Use model for Frequency Domain simulations
*======================================================================
.subckt MSS1246-124_freq port1 port2 PARAMS: Cpar=5.5pF Ind=120uH
X1 port1 port2 Model1A PARAMS:
+ R1=32
+ R2=0.37
+ C= {Cpar}
+ K1=0.0052
+ K2=45
+ K3= {Ind}
+ K4=3
+ K5=0.00001
+ L=0
+ Is=0
+ a=0
+ L_Z0=0
+ L_EL=0
+ L_F0=0E6
+ PkZ=90817.311
.ends MSS1246-124_freq

*======================================================================
* SPICE Model generated by Coilcraft
* Coilcraft Part Number : MSS1246-124
* Inductance = 120uH
*======================================================================
* Model Parameters:
*   Valid Frequency Range = 0.1MHz-10MHz
*   Ambient Temperature = 25 degC
*   Inductor Impedance Model
*   Use model for Time Domain simulations
*======================================================================
.subckt MSS1246-124_imp port1 port2 PARAMS: Cpar=4.93pF Ind=120uH
X1 port1 port2 Model1D PARAMS:
+ R1=32
+ R2=0.37
+ C= {Cpar}
+ K1=0.0052
+ K2=45
+ K3= {Ind}
+ K4=3
+ K5=0.00001
+ L=0
+ Is=0
+ a=0
+ L_Z0=0
+ L_EL=0
+ L_F0=0E6
+ PkZ=90817.311
.ends MSS1246-124_imp

*======================================================================
* SPICE Model generated by Coilcraft
* Coilcraft Part Number : MSS1246-154
* Inductance = 150uH