*======================================================================
* SPICE Model generated by Coilcraft
* Coilcraft Part Number : MSS1260-102
* Inductance = 1uH
*======================================================================
* Model Parameters:
*   Valid Frequency Range = 0.1MHz-80MHz
*   Ambient Temperature = 25 degC
*   Inductor Frequency Model
*   Use model for Frequency Domain simulations
*======================================================================
.subckt MSS1260-102_freq port1 port2 PARAMS: Cpar=2.55pF Ind=1uH
X1 port1 port2 Model1A PARAMS:
+ R1=20
+ R2=0.01
+ C= {Cpar}
+ K1=0.0000001
+ K2=0.173
+ K3= {Ind}
+ K4=0.005
+ K5=0.00000982
+ L=0
+ Is=0
+ a=0
+ L_Z0=0
+ L_EL=0
+ L_F0=0E6
+ PkZ=1595.62114
.ends MSS1260-102_freq

*======================================================================
* SPICE Model generated by Coilcraft
* Coilcraft Part Number : MSS1260-102
* Inductance = 1uH
*======================================================================
* Model Parameters:
*   Valid Frequency Range = 0.1MHz-80MHz
*   Ambient Temperature = 25 degC
*   Inductor Impedance Model
*   Use model for Time Domain simulations
*======================================================================
.subckt MSS1260-102_imp port1 port2 PARAMS: Cpar=2.46pF Ind=1uH
X1 port1 port2 Model1D PARAMS:
+ R1=20
+ R2=0.01
+ C= {Cpar}
+ K1=0.0000001
+ K2=0.173
+ K3= {Ind}
+ K4=0.005
+ K5=0.00000982
+ L=0
+ Is=0
+ a=0
+ L_Z0=0
+ L_EL=0
+ L_F0=0E6
+ PkZ=1595.62114
.ends MSS1260-102_imp

*======================================================================
* SPICE Model generated by Coilcraft
* Coilcraft Part Number : MSS1260-152
* Inductance = 1.5uH
*======================================================================
* Model Parameters:
*   Valid Frequency Range = 0.1MHz-70MHz
*   Ambient Temperature = 25 degC
*   Inductor Frequency Model
*   Use model for Frequency Domain simulations
*======================================================================
.subckt MSS1260-152_freq port1 port2 PARAMS: Cpar=2.38pF Ind=1.5uH
X1 port1 port2 Model1A PARAMS:
+ R1=15
+ R2=0.013
+ C= {Cpar}
+ K1=0.0000002
+ K2=0.317
+ K3= {Ind}
+ K4=0.012
+ K5=0.00000982
+ L=0
+ Is=0
+ a=0
+ L_Z0=0
+ L_EL=0
+ L_F0=0E6
+ PkZ=2746.16132
.ends MSS1260-152_freq

*======================================================================
* SPICE Model generated by Coilcraft
* Coilcraft Part Number : MSS1260-152
* Inductance = 1.5uH
*======================================================================
* Model Parameters:
*   Valid Frequency Range = 0.1MHz-70MHz
*   Ambient Temperature = 25 degC
*   Inductor Impedance Model
*   Use model for Time Domain simulations
*======================================================================
.subckt MSS1260-152_imp port1 port2 PARAMS: Cpar=2.25pF Ind=1.5uH
X1 port1 port2 Model1D PARAMS:
+ R1=15
+ R2=0.013
+ C= {Cpar}
+ K1=0.0000002
+ K2=0.317
+ K3= {Ind}
+ K4=0.012
+ K5=0.00000982
+ L=0
+ Is=0
+ a=0
+ L_Z0=0
+ L_EL=0
+ L_F0=0E6
+ PkZ=2746.16132
.ends MSS1260-152_imp

*======================================================================
* SPICE Model generated by Coilcraft
* Coilcraft Part Number : MSS1260-222
* Inductance = 2.2uH
*======================================================================
* Model Parameters:
*   Valid Frequency Range = 0.1MHz-40MHz
*   Ambient Temperature = 25 degC
*   Inductor Frequency Model
*   Use model for Frequency Domain simulations
*======================================================================
.subckt MSS1260-222_freq port1 port2 PARAMS: Cpar=3.29pF Ind=2.2uH
X1 port1 port2 Model1A PARAMS:
+ R1=15
+ R2=0.014
+ C= {Cpar}
+ K1=6.1E-09
+ K2=0.482
+ K3= {Ind}
+ K4=0.00524
+ K5=0.00000982
+ L=0
+ Is=0
+ a=0
+ L_Z0=0
+ L_EL=0
+ L_F0=0E6
+ PkZ=3430.74637
.ends MSS1260-222_freq

*======================================================================
* SPICE Model generated by Coilcraft
* Coilcraft Part Number : MSS1260-222
* Inductance = 2.2uH
*======================================================================
* Model Parameters:
*   Valid Frequency Range = 0.1MHz-40MHz
*   Ambient Temperature = 25 degC
*   Inductor Impedance Model
*   Use model for Time Domain simulations
*======================================================================
.subckt MSS1260-222_imp port1 port2 PARAMS: Cpar=3.24pF Ind=2.2uH
X1 port1 port2 Model1D PARAMS:
+ R1=15
+ R2=0.014
+ C= {Cpar}
+ K1=6.1E-09
+ K2=0.482
+ K3= {Ind}
+ K4=0.00524
+ K5=0.00000982
+ L=0
+ Is=0
+ a=0
+ L_Z0=0
+ L_EL=0
+ L_F0=0E6
+ PkZ=3430.74637
.ends MSS1260-222_imp

*======================================================================
* SPICE Model generated by Coilcraft
* Coilcraft Part Number : MSS1260-332
* Inductance = 3.3uH
*======================================================================
* Model Parameters:
*   Valid Frequency Range = 0.1MHz-30MHz
*   Ambient Temperature = 25 degC
*   Inductor Frequency Model
*   Use model for Frequency Domain simulations
*======================================================================
.subckt MSS1260-332_freq port1 port2 PARAMS: Cpar=4.73pF Ind=3.3uH
X1 port1 port2 Model1A PARAMS:
+ R1=19
+ R2=0.016
+ C= {Cpar}
+ K1=0.00000361
+ K2=0.69
+ K3= {Ind}
+ K4=0.037
+ K5=0.00000982
+ L=0
+ Is=0
+ a=0
+ L_Z0=0
+ L_EL=0
+ L_F0=0E6
+ PkZ=3942.81971
.ends MSS1260-332_freq

*======================================================================
* SPICE Model generated by Coilcraft
* Coilcraft Part Number : MSS1260-332
* Inductance = 3.3uH
*======================================================================
* Model Parameters:
*   Valid Frequency Range = 0.1MHz-30MHz
*   Ambient Temperature = 25 degC
*   Inductor Impedance Model
*   Use model for Time Domain simulations
*======================================================================
.subckt MSS1260-332_imp port1 port2 PARAMS: Cpar=4.41pF Ind=3.3uH
X1 port1 port2 Model1D PARAMS:
+ R1=19
+ R2=0.016
+ C= {Cpar}
+ K1=0.00000361
+ K2=0.69
+ K3= {Ind}
+ K4=0.037
+ K5=0.00000982
+ L=0
+ Is=0
+ a=0
+ L_Z0=0
+ L_EL=0
+ L_F0=0E6
+ PkZ=3942.81971
.ends MSS1260-332_imp

*======================================================================
* SPICE Model generated by Coilcraft
* Coilcraft Part Number : MSS1260-472
* Inductance = 4.7uH
*======================================================================
* Model Parameters:
*   Valid Frequency Range = 0.1MHz-30MHz
*   Ambient Temperature = 25 degC
*   Inductor Frequency Model
*   Use model for Frequency Domain simulations
*======================================================================
.subckt MSS1260-472_freq port1 port2 PARAMS: Cpar=6.07pF Ind=4.7uH
X1 port1 port2 Model1A PARAMS:
+ R1=33
+ R2=0.02
+ C= {Cpar}
+ K1=0.000035
+ K2=1.18
+ K3= {Ind}
+ K4=0.096
+ K5=0.0000098
+ L=0
+ Is=0
+ a=0
+ L_Z0=0
+ L_EL=0
+ L_F0=0E6
+ PkZ=5025.31357
.ends MSS1260-472_freq

*======================================================================
* SPICE Model generated by Coilcraft
* Coilcraft Part Number : MSS1260-472
* Inductance = 4.7uH
*======================================================================
* Model Parameters:
*   Valid Frequency Range = 0.1MHz-30MHz
*   Ambient Temperature = 25 degC
*   Inductor Impedance Model
*   Use model for Time Domain simulations
*======================================================================
.subckt MSS1260-472_imp port1 port2 PARAMS: Cpar=5.37pF Ind=4.7uH
X1 port1 port2 Model1D PARAMS:
+ R1=33
+ R2=0.02
+ C= {Cpar}
+ K1=0.000035
+ K2=1.18
+ K3= {Ind}
+ K4=0.096
+ K5=0.0000098
+ L=0
+ Is=0
+ a=0
+ L_Z0=0
+ L_EL=0
+ L_F0=0E6
+ PkZ=5025.31357
.ends MSS1260-472_imp

*======================================================================
* SPICE Model generated by Coilcraft
* Coilcraft Part Number : MSS1260-562
* Inductance = 5.6uH
*======================================================================
* Model Parameters:
*   Valid Frequency Range = 0.1MHz-30MHz
*   Ambient Temperature = 25 degC
*   Inductor Frequency Model
*   Use model for Frequency Domain simulations
*======================================================================
.subckt MSS1260-562_freq port1 port2 PARAMS: Cpar=5.39pF Ind=5.6uH
X1 port1 port2 Model1A PARAMS:
+ R1=44
+ R2=0.022
+ C= {Cpar}
+ K1=0.00172
+ K2=2.7
+ K3= {Ind}
+ K4=0.145
+ K5=0.0000094
+ L=0
+ Is=0
+ a=0
+ L_Z0=0
+ L_EL=0
+ L_F0=0E6
+ PkZ=7900.11996
.ends MSS1260-562_freq

*======================================================================
* SPICE Model generated by Coilcraft
* Coilcraft Part Number : MSS1260-562
* Inductance = 5.6uH
*======================================================================
* Model Parameters:
*   Valid Frequency Range = 0.1MHz-30MHz
*   Ambient Temperature = 25 degC
*   Inductor Impedance Model
*   Use model for Time Domain simulations
*======================================================================
.subckt MSS1260-562_imp port1 port2 PARAMS: Cpar=4.61pF Ind=5.6uH
X1 port1 port2 Model1D PARAMS:
+ R1=44
+ R2=0.022
+ C= {Cpar}
+ K1=0.00172
+ K2=2.7
+ K3= {Ind}
+ K4=0.145
+ K5=0.0000094
+ L=0
+ Is=0
+ a=0
+ L_Z0=0
+ L_EL=0
+ L_F0=0E6
+ PkZ=7900.11996
.ends MSS1260-562_imp

*======================================================================
* SPICE Model generated by Coilcraft
* Coilcraft Part Number : MSS1260-682
* Inductance = 6.8uH
*======================================================================
* Model Parameters:
*   Valid Frequency Range = 0.1MHz-25MHz
*   Ambient Temperature = 25 degC
*   Inductor Frequency Model
*   Use model for Frequency Domain simulations
*======================================================================
.subckt MSS1260-682_freq port1 port2 PARAMS: Cpar=5.89pF Ind=6.8uH
X1 port1 port2 Model1A PARAMS:
+ R1=47
+ R2=0.023
+ C= {Cpar}
+ K1=0.00037
+ K2=2.89
+ K3= {Ind}
+ K4=0.23
+ K5=0.00000981
+ L=0
+ Is=0
+ a=0
+ L_Z0=0
+ L_EL=0
+ L_F0=0E6
+ PkZ=8492.95542
.ends MSS1260-682_freq

*======================================================================
* SPICE Model generated by Coilcraft
* Coilcraft Part Number : MSS1260-682
* Inductance = 6.8uH
*======================================================================
* Model Parameters:
*   Valid Frequency Range = 0.1MHz-25MHz
*   Ambient Temperature = 25 degC
*   Inductor Impedance Model
*   Use model for Time Domain simulations
*======================================================================
.subckt MSS1260-682_imp port1 port2 PARAMS: Cpar=4.79pF Ind=6.8uH
X1 port1 port2 Model1D PARAMS:
+ R1=47
+ R2=0.023
+ C= {Cpar}
+ K1=0.00037
+ K2=2.89
+ K3= {Ind}
+ K4=0.23
+ K5=0.00000981
+ L=0
+ Is=0
+ a=0
+ L_Z0=0
+ L_EL=0
+ L_F0=0E6
+ PkZ=8492.95542
.ends MSS1260-682_imp

*======================================================================
* SPICE Model generated by Coilcraft
* Coilcraft Part Number : MSS1260-822
* Inductance = 8.2uH
*======================================================================
* Model Parameters:
*   Valid Frequency Range = 0.1MHz-23MHz
*   Ambient Temperature = 25 degC
*   Inductor Frequency Model
*   Use model for Frequency Domain simulations
*======================================================================
.subckt MSS1260-822_freq port1 port2 PARAMS: Cpar=6.76pF Ind=8.2uH
X1 port1 port2 Model1A PARAMS:
+ R1=34
+ R2=0.025
+ C= {Cpar}
+ K1=0.000496
+ K2=2.55
+ K3= {Ind}
+ K4=0.165
+ K5=0.0000097
+ L=0
+ Is=0
+ a=0
+ L_Z0=0
+ L_EL=0
+ L_F0=0E6
+ PkZ=8619.45666
.ends MSS1260-822_freq

*======================================================================
* SPICE Model generated by Coilcraft
* Coilcraft Part Number : MSS1260-822
* Inductance = 8.2uH
*======================================================================
* Model Parameters:
*   Valid Frequency Range = 0.1MHz-23MHz
*   Ambient Temperature = 25 degC
*   Inductor Impedance Model
*   Use model for Time Domain simulations
*======================================================================
.subckt MSS1260-822_imp port1 port2 PARAMS: Cpar=6.03pF Ind=8.2uH
X1 port1 port2 Model1D PARAMS:
+ R1=34
+ R2=0.025
+ C= {Cpar}
+ K1=0.000496
+ K2=2.55
+ K3= {Ind}
+ K4=0.165
+ K5=0.0000097
+ L=0
+ Is=0
+ a=0
+ L_Z0=0
+ L_EL=0
+ L_F0=0E6
+ PkZ=8619.45666
.ends MSS1260-822_imp

*======================================================================
* SPICE Model generated by Coilcraft
* Coilcraft Part Number : MSS1260-103
* Inductance = 10uH
*======================================================================
* Model Parameters:
*   Valid Frequency Range = 0.1MHz-20MHz
*   Ambient Temperature = 25 degC
*   Inductor Frequency Model
*   Use model for Frequency Domain simulations
*======================================================================
.subckt MSS1260-103_freq port1 port2 PARAMS: Cpar=5.9pF Ind=10uH
X1 port1 port2 Model1A PARAMS:
+ R1=38
+ R2=0.028
+ C= {Cpar}
+ K1=0.00304
+ K2=2.89
+ K3= {Ind}
+ K4=0.216
+ K5=0.00000895
+ L=0
+ Is=0
+ a=0
+ L_Z0=0
+ L_EL=0
+ L_F0=0E6
+ PkZ=9212.7114
.ends MSS1260-103_freq

*======================================================================
* SPICE Model generated by Coilcraft
* Coilcraft Part Number : MSS1260-103
* Inductance = 10uH
*======================================================================
* Model Parameters:
*   Valid Frequency Range = 0.1MHz-20MHz
*   Ambient Temperature = 25 degC
*   Inductor Impedance Model
*   Use model for Time Domain simulations
*======================================================================
.subckt MSS1260-103_imp port1 port2 PARAMS: Cpar=5.23pF Ind=10uH
X1 port1 port2 Model1D PARAMS:
+ R1=38
+ R2=0.028
+ C= {Cpar}
+ K1=0.00304
+ K2=2.89
+ K3= {Ind}
+ K4=0.216
+ K5=0.00000895
+ L=0
+ Is=0
+ a=0
+ L_Z0=0
+ L_EL=0
+ L_F0=0E6
+ PkZ=9212.7114
.ends MSS1260-103_imp

*======================================================================
* SPICE Model generated by Coilcraft
* Coilcraft Part Number : MSS1260-123
* Inductance = 12uH
*======================================================================
* Model Parameters:
*   Valid Frequency Range = 0.1MHz-20MHz
*   Ambient Temperature = 25 degC
*   Inductor Frequency Model
*   Use model for Frequency Domain simulations
*======================================================================
.subckt MSS1260-123_freq port1 port2 PARAMS: Cpar=5.12pF Ind=12uH
X1 port1 port2 Model1A PARAMS:
+ R1=40
+ R2=0.032
+ C= {Cpar}
+ K1=0.00445
+ K2=3.6
+ K3= {Ind}
+ K4=0.278
+ K5=0.00000889
+ L=0
+ Is=0
+ a=0
+ L_Z0=0
+ L_EL=0
+ L_F0=0E6
+ PkZ=11213.7984
.ends MSS1260-123_freq

*======================================================================
* SPICE Model generated by Coilcraft
* Coilcraft Part Number : MSS1260-123
* Inductance = 12uH
*======================================================================
* Model Parameters:
*   Valid Frequency Range = 0.1MHz-20MHz
*   Ambient Temperature = 25 degC
*   Inductor Impedance Model
*   Use model for Time Domain simulations
*======================================================================
.subckt MSS1260-123_imp port1 port2 PARAMS: Cpar=4.50pF Ind=12uH
X1 port1 port2 Model1D PARAMS:
+ R1=40
+ R2=0.032
+ C= {Cpar}
+ K1=0.00445
+ K2=3.6
+ K3= {Ind}
+ K4=0.278
+ K5=0.00000889
+ L=0
+ Is=0
+ a=0
+ L_Z0=0
+ L_EL=0
+ L_F0=0E6
+ PkZ=11213.7984
.ends MSS1260-123_imp

*======================================================================
* SPICE Model generated by Coilcraft
* Coilcraft Part Number : MSS1260-153
* Inductance = 15uH
*======================================================================
* Model Parameters:
*   Valid Frequency Range = 0.1MHz-17MHz
*   Ambient Temperature = 25 degC
*   Inductor Frequency Model
*   Use model for Frequency Domain simulations
*======================================================================
.subckt MSS1260-153_freq port1 port2 PARAMS: Cpar=6.47pF Ind=15uH
X1 port1 port2 Model1A PARAMS:
+ R1=33
+ R2=0.04
+ C= {Cpar}
+ K1=0.000553
+ K2=4.54
+ K3= {Ind}
+ K4=0.372
+ K5=0.00000979
+ L=0
+ Is=0
+ a=0
+ L_Z0=0
+ L_EL=0
+ L_F0=0E6
+ PkZ=14200.3854
.ends MSS1260-153_freq

*======================================================================
* SPICE Model generated by Coilcraft
* Coilcraft Part Number : MSS1260-153
* Inductance = 15uH
*======================================================================
* Model Parameters:
*   Valid Frequency Range = 0.1MHz-17MHz
*   Ambient Temperature = 25 degC
*   Inductor Impedance Model
*   Use model for Time Domain simulations
*======================================================================
.subckt MSS1260-153_imp port1 port2 PARAMS: Cpar=5.66pF Ind=15uH
X1 port1 port2 Model1D PARAMS:
+ R1=33
+ R2=0.04
+ C= {Cpar}
+ K1=0.000553
+ K2=4.54
+ K3= {Ind}
+ K4=0.372
+ K5=0.00000979
+ L=0
+ Is=0
+ a=0
+ L_Z0=0
+ L_EL=0
+ L_F0=0E6
+ PkZ=14200.3854
.ends MSS1260-153_imp

*======================================================================
* SPICE Model generated by Coilcraft
* Coilcraft Part Number : MSS1260-183
* Inductance = 18uH
*======================================================================
* Model Parameters:
*   Valid Frequency Range = 0.1MHz-16MHz
*   Ambient Temperature = 25 degC
*   Inductor Frequency Model
*   Use model for Frequency Domain simulations
*======================================================================
.subckt MSS1260-183_freq port1 port2 PARAMS: Cpar=5.65pF Ind=18uH
X1 port1 port2 Model1A PARAMS:
+ R1=37
+ R2=0.045
+ C= {Cpar}
+ K1=0.002
+ K2=5.28
+ K3= {Ind}
+ K4=0.423
+ K5=0.00000956
+ L=0
+ Is=0
+ a=0
+ L_Z0=0
+ L_EL=0
+ L_F0=0E6
+ PkZ=16050.8155
.ends MSS1260-183_freq

*======================================================================
* SPICE Model generated by Coilcraft
* Coilcraft Part Number : MSS1260-183
* Inductance = 18uH
*======================================================================
* Model Parameters:
*   Valid Frequency Range = 0.1MHz-16MHz
*   Ambient Temperature = 25 degC
*   Inductor Impedance Model
*   Use model for Time Domain simulations
*======================================================================
.subckt MSS1260-183_imp port1 port2 PARAMS: Cpar=4.98pF Ind=18uH
X1 port1 port2 Model1D PARAMS:
+ R1=37
+ R2=0.045
+ C= {Cpar}
+ K1=0.002
+ K2=5.28
+ K3= {Ind}
+ K4=0.423
+ K5=0.00000956
+ L=0
+ Is=0
+ a=0
+ L_Z0=0
+ L_EL=0
+ L_F0=0E6
+ PkZ=16050.8155
.ends MSS1260-183_imp

*======================================================================
* SPICE Model generated by Coilcraft
* Coilcraft Part Number : MSS1260-223
* Inductance = 22uH
*======================================================================
* Model Parameters:
*   Valid Frequency Range = 0.1MHz-13MHz
*   Ambient Temperature = 25 degC
*   Inductor Frequency Model
*   Use model for Frequency Domain simulations
*======================================================================
.subckt MSS1260-223_freq port1 port2 PARAMS: Cpar=7.23pF Ind=22uH
X1 port1 port2 Model1A PARAMS:
+ R1=35
+ R2=0.052
+ C= {Cpar}
+ K1=0.0058
+ K2=8.65
+ K3= {Ind}
+ K4=0.552
+ K5=0.00000939
+ L=0
+ Is=0
+ a=0
+ L_Z0=0
+ L_EL=0
+ L_F0=0E6
+ PkZ=19022.612
.ends MSS1260-223_freq

*======================================================================
* SPICE Model generated by Coilcraft
* Coilcraft Part Number : MSS1260-223
* Inductance = 22uH
*======================================================================
* Model Parameters:
*   Valid Frequency Range = 0.1MHz-13MHz
*   Ambient Temperature = 25 degC
*   Inductor Impedance Model
*   Use model for Time Domain simulations
*======================================================================
.subckt MSS1260-223_imp port1 port2 PARAMS: Cpar=6.36pF Ind=22uH
X1 port1 port2 Model1D PARAMS:
+ R1=35
+ R2=0.052
+ C= {Cpar}
+ K1=0.0058
+ K2=8.65
+ K3= {Ind}
+ K4=0.552
+ K5=0.00000939
+ L=0
+ Is=0
+ a=0
+ L_Z0=0
+ L_EL=0
+ L_F0=0E6
+ PkZ=19022.612
.ends MSS1260-223_imp

*======================================================================
* SPICE Model generated by Coilcraft
* Coilcraft Part Number : MSS1260-273
* Inductance = 27uH
*======================================================================
* Model Parameters:
*   Valid Frequency Range = 0.1MHz-12MHz
*   Ambient Temperature = 25 degC
*   Inductor Frequency Model
*   Use model for Frequency Domain simulations
*======================================================================
.subckt MSS1260-273_freq port1 port2 PARAMS: Cpar=6.58pF Ind=27uH
X1 port1 port2 Model1A PARAMS:
+ R1=55
+ R2=0.065
+ C= {Cpar}
+ K1=0.00158
+ K2=14
+ K3= {Ind}
+ K4=0.625
+ K5=0.00000981
+ L=0
+ Is=0
+ a=0
+ L_Z0=0
+ L_EL=0
+ L_F0=0E6
+ PkZ=27253.1375
.ends MSS1260-273_freq

*======================================================================
* SPICE Model generated by Coilcraft
* Coilcraft Part Number : MSS1260-273
* Inductance = 27uH
*======================================================================
* Model Parameters:
*   Valid Frequency Range = 0.1MHz-12MHz
*   Ambient Temperature = 25 degC
*   Inductor Impedance Model
*   Use model for Time Domain simulations
*======================================================================
.subckt MSS1260-273_imp port1 port2 PARAMS: Cpar=5.85pF Ind=27uH
X1 port1 port2 Model1D PARAMS:
+ R1=55
+ R2=0.065
+ C= {Cpar}
+ K1=0.00158
+ K2=14
+ K3= {Ind}
+ K4=0.625
+ K5=0.00000981
+ L=0
+ Is=0
+ a=0
+ L_Z0=0
+ L_EL=0
+ L_F0=0E6
+ PkZ=27253.1375
.ends MSS1260-273_imp

*======================================================================
* SPICE Model generated by Coilcraft
* Coilcraft Part Number : MSS1260-333
* Inductance = 33uH
*======================================================================
* Model Parameters:
*   Valid Frequency Range = 0.1MHz-11MHz
*   Ambient Temperature = 25 degC
*   Inductor Frequency Model
*   Use model for Frequency Domain simulations
*======================================================================
.subckt MSS1260-333_freq port1 port2 PARAMS: Cpar=6.7pF Ind=33uH
X1 port1 port2 Model1A PARAMS:
+ R1=53
+ R2=0.075
+ C= {Cpar}
+ K1=0.0019
+ K2=17.5
+ K3= {Ind}
+ K4=0.118
+ K5=0.00000983
+ L=0
+ Is=0
+ a=0
+ L_Z0=0
+ L_EL=0
+ L_F0=0E6
+ PkZ=33761.4274
.ends MSS1260-333_freq

*======================================================================
* SPICE Model generated by Coilcraft
* Coilcraft Part Number : MSS1260-333
* Inductance = 33uH
*======================================================================
* Model Parameters:
*   Valid Frequency Range = 0.1MHz-11MHz
*   Ambient Temperature = 25 degC
*   Inductor Impedance Model
*   Use model for Time Domain simulations
*======================================================================
.subckt MSS1260-333_imp port1 port2 PARAMS: Cpar=6.59pF Ind=33uH
X1 port1 port2 Model1D PARAMS:
+ R1=53
+ R2=0.075
+ C= {Cpar}
+ K1=0.0019
+ K2=17.5
+ K3= {Ind}
+ K4=0.118
+ K5=0.00000983
+ L=0
+ Is=0
+ a=0
+ L_Z0=0
+ L_EL=0
+ L_F0=0E6
+ PkZ=33761.4274
.ends MSS1260-333_imp

*======================================================================
* SPICE Model generated by Coilcraft
* Coilcraft Part Number : MSS1260-393
* Inductance = 39uH
*======================================================================
* Model Parameters:
*   Valid Frequency Range = 0.1MHz-10MHz
*   Ambient Temperature = 25 degC
*   Inductor Frequency Model
*   Use model for Frequency Domain simulations
*======================================================================
.subckt MSS1260-393_freq port1 port2 PARAMS: Cpar=6.77pF Ind=39uH
X1 port1 port2 Model1A PARAMS:
+ R1=64
+ R2=0.08
+ C= {Cpar}
+ K1=0.0034
+ K2=23
+ K3= {Ind}
+ K4=1.026
+ K5=0.00000981
+ L=0
+ Is=0
+ a=0
+ L_Z0=0
+ L_EL=0
+ L_F0=0E6
+ PkZ=35370.554
.ends MSS1260-393_freq

*======================================================================
* SPICE Model generated by Coilcraft
* Coilcraft Part Number : MSS1260-393
* Inductance = 39uH
*======================================================================
* Model Parameters:
*   Valid Frequency Range = 0.1MHz-10MHz
*   Ambient Temperature = 25 degC
*   Inductor Impedance Model
*   Use model for Time Domain simulations
*======================================================================
.subckt MSS1260-393_imp port1 port2 PARAMS: Cpar=5.96pF Ind=39uH
X1 port1 port2 Model1D PARAMS:
+ R1=64
+ R2=0.08
+ C= {Cpar}
+ K1=0.0034
+ K2=23
+ K3= {Ind}
+ K4=1.026
+ K5=0.00000981
+ L=0
+ Is=0
+ a=0
+ L_Z0=0
+ L_EL=0
+ L_F0=0E6
+ PkZ=35370.554
.ends MSS1260-393_imp

*======================================================================
* SPICE Model generated by Coilcraft
* Coilcraft Part Number : MSS1260-473
* Inductance = 47uH
*======================================================================
* Model Parameters:
*   Valid Frequency Range = 0.1MHz-9MHz
*   Ambient Temperature = 25 degC
*   Inductor Frequency Model
*   Use model for Frequency Domain simulations
*======================================================================
.subckt MSS1260-473_freq port1 port2 PARAMS: Cpar=6.75pF Ind=47uH
X1 port1 port2 Model1A PARAMS:
+ R1=57
+ R2=0.1
+ C= {Cpar}
+ K1=0.00248
+ K2=22.4
+ K3= {Ind}
+ K4=1.09
+ K5=0.00000985
+ L=0
+ Is=0
+ a=0
+ L_Z0=0
+ L_EL=0
+ L_F0=0E6
+ PkZ=40165.1519
.ends MSS1260-473_freq

*======================================================================
* SPICE Model generated by Coilcraft
* Coilcraft Part Number : MSS1260-473
* Inductance = 47uH
*======================================================================
* Model Parameters:
*   Valid Frequency Range = 0.1MHz-9MHz
*   Ambient Temperature = 25 degC
*   Inductor Impedance Model
*   Use model for Time Domain simulations
*======================================================================
.subckt MSS1260-473_imp port1 port2 PARAMS: Cpar=6.05pF Ind=47uH
X1 port1 port2 Model1D PARAMS:
+ R1=57
+ R2=0.1
+ C= {Cpar}
+ K1=0.00248
+ K2=22.4
+ K3= {Ind}
+ K4=1.09
+ K5=0.00000985
+ L=0
+ Is=0
+ a=0
+ L_Z0=0
+ L_EL=0
+ L_F0=0E6
+ PkZ=40165.1519
.ends MSS1260-473_imp

*======================================================================
* SPICE Model generated by Coilcraft
* Coilcraft Part Number : MSS1260-563
* Inductance = 56uH
*======================================================================
* Model Parameters:
*   Valid Frequency Range = 0.1MHz-8MHz
*   Ambient Temperature = 25 degC
*   Inductor Frequency Model
*   Use model for Frequency Domain simulations
*======================================================================
.subckt MSS1260-563_freq port1 port2 PARAMS: Cpar=7.84pF Ind=56uH
X1 port1 port2 Model1A PARAMS:
+ R1=98
+ R2=0.12
+ C= {Cpar}
+ K1=0.0038
+ K2=130
+ K3= {Ind}
+ K4=1.45
+ K5=0.00000993
+ L=0
+ Is=0
+ a=0
+ L_Z0=0
+ L_EL=0
+ L_F0=0E6
+ PkZ=50293.229
.ends MSS1260-563_freq

*======================================================================
* SPICE Model generated by Coilcraft
* Coilcraft Part Number : MSS1260-563
* Inductance = 56uH
*======================================================================
* Model Parameters:
*   Valid Frequency Range = 0.1MHz-8MHz
*   Ambient Temperature = 25 degC
*   Inductor Impedance Model
*   Use model for Time Domain simulations
*======================================================================
.subckt MSS1260-563_imp port1 port2 PARAMS: Cpar=6.96pF Ind=56uH
X1 port1 port2 Model1D PARAMS:
+ R1=98
+ R2=0.12
+ C= {Cpar}
+ K1=0.0038
+ K2=130
+ K3= {Ind}
+ K4=1.45
+ K5=0.00000993
+ L=0
+ Is=0
+ a=0
+ L_Z0=0
+ L_EL=0
+ L_F0=0E6
+ PkZ=50293.229
.ends MSS1260-563_imp

*======================================================================
* SPICE Model generated by Coilcraft
* Coilcraft Part Number : MSS1260-683
* Inductance = 68uH
*======================================================================
* Model Parameters:
*   Valid Frequency Range = 0.1MHz-8MHz
*   Ambient Temperature = 25 degC
*   Inductor Frequency Model
*   Use model for Frequency Domain simulations
*======================================================================
.subckt MSS1260-683_freq port1 port2 PARAMS: Cpar=6.61pF Ind=68uH
X1 port1 port2 Model1A PARAMS:
+ R1=86
+ R2=0.13
+ C= {Cpar}
+ K1=0.00488
+ K2=73
+ K3= {Ind}
+ K4=1.82
+ K5=0.0000099
+ L=0
+ Is=0
+ a=0
+ L_Z0=0
+ L_EL=0
+ L_F0=0E6
+ PkZ=63150.2187
.ends MSS1260-683_freq

*======================================================================
* SPICE Model generated by Coilcraft
* Coilcraft Part Number : MSS1260-683
* Inductance = 68uH
*======================================================================
* Model Parameters:
*   Valid Frequency Range = 0.1MHz-8MHz
*   Ambient Temperature = 25 degC
*   Inductor Impedance Model
*   Use model for Time Domain simulations
*======================================================================
.subckt MSS1260-683_imp port1 port2 PARAMS: Cpar=5.85pF Ind=68uH
X1 port1 port2 Model1D PARAMS:
+ R1=86
+ R2=0.13
+ C= {Cpar}
+ K1=0.00488
+ K2=73
+ K3= {Ind}
+ K4=1.82
+ K5=0.0000099
+ L=0
+ Is=0
+ a=0
+ L_Z0=0
+ L_EL=0
+ L_F0=0E6
+ PkZ=63150.2187
.ends MSS1260-683_imp

*======================================================================