*======================================================================
* SPICE Model generated by Coilcraft
* Coilcraft Part Number : MSS1278T-102
* Inductance = 1uH
*======================================================================
* Model Parameters:
*   Valid Frequency Range = 0.1MHz-300MHz
*   Ambient Temperature = 25 degC
*   Inductor Frequency Model
*   Use model for Frequency Domain simulations
*======================================================================
.subckt MSS1278T-102_freq port1 port2 PARAMS: Cpar=3.7pF Ind=1uH
X1 port1 port2 Model1A PARAMS:
+ R1=10
+ R2=0.0063
+ C= {Cpar}
+ K1=0.00008
+ K2=0.24
+ K3= {Ind}
+ K4=0.0085
+ K5=0.0000093
+ L=0
+ Is=0
+ a=0
+ L_Z0=0
+ L_EL=0
+ L_F0=0E6
+ PkZ=2026.12297
.ends MSS1278T-102_freq

*======================================================================
* SPICE Model generated by Coilcraft
* Coilcraft Part Number : MSS1278T-102
* Inductance = 1uH
*======================================================================
* Model Parameters:
*   Valid Frequency Range = 0.1MHz-300MHz
*   Ambient Temperature = 25 degC
*   Inductor Impedance Model
*   Use model for Time Domain simulations
*======================================================================
.subckt MSS1278T-102_imp port1 port2 PARAMS: Cpar=3.49pF Ind=1uH
X1 port1 port2 Model1D PARAMS:
+ R1=10
+ R2=0.0063
+ C= {Cpar}
+ K1=0.00008
+ K2=0.24
+ K3= {Ind}
+ K4=0.0085
+ K5=0.0000093
+ L=0
+ Is=0
+ a=0
+ L_Z0=0
+ L_EL=0
+ L_F0=0E6
+ PkZ=2026.12297
.ends MSS1278T-102_imp

*======================================================================
* SPICE Model generated by Coilcraft
* Coilcraft Part Number : MSS1278T-142
* Inductance = 1.4uH
*======================================================================
* Model Parameters:
*   Valid Frequency Range = 0.1MHz-200MHz
*   Ambient Temperature = 25 degC
*   Inductor Frequency Model
*   Use model for Frequency Domain simulations
*======================================================================
.subckt MSS1278T-142_freq port1 port2 PARAMS: Cpar=3.5pF Ind=1.4uH
X1 port1 port2 Model1A PARAMS:
+ R1=6.5
+ R2=0.0088
+ C= {Cpar}
+ K1=0.00012
+ K2=0.4
+ K3= {Ind}
+ K4=0.028
+ K5=0.00000985
+ L=0
+ Is=0
+ a=0
+ L_Z0=0
+ L_EL=0
+ L_F0=0E6
+ PkZ=3263.67458
.ends MSS1278T-142_freq

*======================================================================
* SPICE Model generated by Coilcraft
* Coilcraft Part Number : MSS1278T-142
* Inductance = 1.4uH
*======================================================================
* Model Parameters:
*   Valid Frequency Range = 0.1MHz-200MHz
*   Ambient Temperature = 25 degC
*   Inductor Impedance Model
*   Use model for Time Domain simulations
*======================================================================
.subckt MSS1278T-142_imp port1 port2 PARAMS: Cpar=3.04pF Ind=1.4uH
X1 port1 port2 Model1D PARAMS:
+ R1=6.5
+ R2=0.0088
+ C= {Cpar}
+ K1=0.00012
+ K2=0.4
+ K3= {Ind}
+ K4=0.028
+ K5=0.00000985
+ L=0
+ Is=0
+ a=0
+ L_Z0=0
+ L_EL=0
+ L_F0=0E6
+ PkZ=3263.67458
.ends MSS1278T-142_imp

*======================================================================
* SPICE Model generated by Coilcraft
* Coilcraft Part Number : MSS1278T-222
* Inductance = 2.2uH
*======================================================================
* Model Parameters:
*   Valid Frequency Range = 0.1MHz-100MHz
*   Ambient Temperature = 25 degC
*   Inductor Frequency Model
*   Use model for Frequency Domain simulations
*======================================================================
.subckt MSS1278T-222_freq port1 port2 PARAMS: Cpar=6.1pF Ind=2.2uH
X1 port1 port2 Model1A PARAMS:
+ R1=5.1
+ R2=0.0094
+ C= {Cpar}
+ K1=0.000275
+ K2=0.55
+ K3= {Ind}
+ K4=0.026
+ K5=0.0000091
+ L=0
+ Is=0
+ a=0
+ L_Z0=0
+ L_EL=0
+ L_F0=0E6
+ PkZ=3429.75777
.ends MSS1278T-222_freq

*======================================================================
* SPICE Model generated by Coilcraft
* Coilcraft Part Number : MSS1278T-222
* Inductance = 2.2uH
*======================================================================
* Model Parameters:
*   Valid Frequency Range = 0.1MHz-100MHz
*   Ambient Temperature = 25 degC
*   Inductor Impedance Model
*   Use model for Time Domain simulations
*======================================================================
.subckt MSS1278T-222_imp port1 port2 PARAMS: Cpar=5.67pF Ind=2.2uH
X1 port1 port2 Model1D PARAMS:
+ R1=5.1
+ R2=0.0094
+ C= {Cpar}
+ K1=0.000275
+ K2=0.55
+ K3= {Ind}
+ K4=0.026
+ K5=0.0000091
+ L=0
+ Is=0
+ a=0
+ L_Z0=0
+ L_EL=0
+ L_F0=0E6
+ PkZ=3429.75777
.ends MSS1278T-222_imp

*======================================================================
* SPICE Model generated by Coilcraft
* Coilcraft Part Number : MSS1278T-272
* Inductance = 2.7uH
*======================================================================
* Model Parameters:
*   Valid Frequency Range = 0.1MHz-100MHz
*   Ambient Temperature = 25 degC
*   Inductor Frequency Model
*   Use model for Frequency Domain simulations
*======================================================================
.subckt MSS1278T-272_freq port1 port2 PARAMS: Cpar=9.5pF Ind=2.7uH
X1 port1 port2 Model1A PARAMS:
+ R1=3.5
+ R2=0.0101
+ C= {Cpar}
+ K1=0.00013
+ K2=0.86
+ K3= {Ind}
+ K4=0.075
+ K5=0.0000099
+ L=0
+ Is=0
+ a=0
+ L_Z0=0
+ L_EL=0
+ L_F0=0E6
+ PkZ=4617.90783
.ends MSS1278T-272_freq

*======================================================================
* SPICE Model generated by Coilcraft
* Coilcraft Part Number : MSS1278T-272
* Inductance = 2.7uH
*======================================================================
* Model Parameters:
*   Valid Frequency Range = 0.1MHz-100MHz
*   Ambient Temperature = 25 degC
*   Inductor Impedance Model
*   Use model for Time Domain simulations
*======================================================================
.subckt MSS1278T-272_imp port1 port2 PARAMS: Cpar=7.99pF Ind=2.7uH
X1 port1 port2 Model1D PARAMS:
+ R1=3.5
+ R2=0.0101
+ C= {Cpar}
+ K1=0.00013
+ K2=0.86
+ K3= {Ind}
+ K4=0.075
+ K5=0.0000099
+ L=0
+ Is=0
+ a=0
+ L_Z0=0
+ L_EL=0
+ L_F0=0E6
+ PkZ=4617.90783
.ends MSS1278T-272_imp

*======================================================================
* SPICE Model generated by Coilcraft
* Coilcraft Part Number : MSS1278T-392
* Inductance = 3.9uH
*======================================================================
* Model Parameters:
*   Valid Frequency Range = 0.1MHz-100MHz
*   Ambient Temperature = 25 degC
*   Inductor Frequency Model
*   Use model for Frequency Domain simulations
*======================================================================
.subckt MSS1278T-392_freq port1 port2 PARAMS: Cpar=8pF Ind=3.9uH
X1 port1 port2 Model1A PARAMS:
+ R1=4
+ R2=0.0117
+ C= {Cpar}
+ K1=0.000315
+ K2=1.2
+ K3= {Ind}
+ K4=0.16
+ K5=0.00000985
+ L=0
+ Is=0
+ a=0
+ L_Z0=0
+ L_EL=0
+ L_F0=0E6
+ PkZ=6167.92501
.ends MSS1278T-392_freq

*======================================================================
* SPICE Model generated by Coilcraft
* Coilcraft Part Number : MSS1278T-392
* Inductance = 3.9uH
*======================================================================
* Model Parameters:
*   Valid Frequency Range = 0.1MHz-100MHz
*   Ambient Temperature = 25 degC
*   Inductor Impedance Model
*   Use model for Time Domain simulations
*======================================================================
.subckt MSS1278T-392_imp port1 port2 PARAMS: Cpar=6.15pF Ind=3.9uH
X1 port1 port2 Model1D PARAMS:
+ R1=4
+ R2=0.0117
+ C= {Cpar}
+ K1=0.000315
+ K2=1.2
+ K3= {Ind}
+ K4=0.16
+ K5=0.00000985
+ L=0
+ Is=0
+ a=0
+ L_Z0=0
+ L_EL=0
+ L_F0=0E6
+ PkZ=6167.92501
.ends MSS1278T-392_imp

*======================================================================
* SPICE Model generated by Coilcraft
* Coilcraft Part Number : MSS1278T-472
* Inductance = 4.7uH
*======================================================================
* Model Parameters:
*   Valid Frequency Range = 0.1MHz-100MHz
*   Ambient Temperature = 25 degC
*   Inductor Frequency Model
*   Use model for Frequency Domain simulations
*======================================================================
.subckt MSS1278T-472_freq port1 port2 PARAMS: Cpar=3.2pF Ind=4.7uH
X1 port1 port2 Model1A PARAMS:
+ R1=5.4
+ R2=0.0139
+ C= {Cpar}
+ K1=0.000425
+ K2=1.5
+ K3= {Ind}
+ K4=0.073
+ K5=0.0000096
+ L=0
+ Is=0
+ a=0
+ L_Z0=0
+ L_EL=0
+ L_F0=0E6
+ PkZ=9283.77123
.ends MSS1278T-472_freq

*======================================================================
* SPICE Model generated by Coilcraft
* Coilcraft Part Number : MSS1278T-472
* Inductance = 4.7uH
*======================================================================
* Model Parameters:
*   Valid Frequency Range = 0.1MHz-100MHz
*   Ambient Temperature = 25 degC
*   Inductor Impedance Model
*   Use model for Time Domain simulations
*======================================================================
.subckt MSS1278T-472_imp port1 port2 PARAMS: Cpar=2.90pF Ind=4.7uH
X1 port1 port2 Model1D PARAMS:
+ R1=5.4
+ R2=0.0139
+ C= {Cpar}
+ K1=0.000425
+ K2=1.5
+ K3= {Ind}
+ K4=0.073
+ K5=0.0000096
+ L=0
+ Is=0
+ a=0
+ L_Z0=0
+ L_EL=0
+ L_F0=0E6
+ PkZ=9283.77123
.ends MSS1278T-472_imp

*======================================================================
* SPICE Model generated by Coilcraft
* Coilcraft Part Number : MSS1278T-562
* Inductance = 5.6uH
*======================================================================
* Model Parameters:
*   Valid Frequency Range = 0.1MHz-100MHz
*   Ambient Temperature = 25 degC
*   Inductor Frequency Model
*   Use model for Frequency Domain simulations
*======================================================================
.subckt MSS1278T-562_freq port1 port2 PARAMS: Cpar=5pF Ind=5.6uH
X1 port1 port2 Model1A PARAMS:
+ R1=3.8
+ R2=0.0157
+ C= {Cpar}
+ K1=0.0003
+ K2=1.5
+ K3= {Ind}
+ K4=0.089
+ K5=0.0000097
+ L=0
+ Is=0
+ a=0
+ L_Z0=0
+ L_EL=0
+ L_F0=0E6
+ PkZ=8057.51443
.ends MSS1278T-562_freq

*======================================================================
* SPICE Model generated by Coilcraft
* Coilcraft Part Number : MSS1278T-562
* Inductance = 5.6uH
*======================================================================
* Model Parameters:
*   Valid Frequency Range = 0.1MHz-100MHz
*   Ambient Temperature = 25 degC
*   Inductor Impedance Model
*   Use model for Time Domain simulations
*======================================================================
.subckt MSS1278T-562_imp port1 port2 PARAMS: Cpar=4.55pF Ind=5.6uH
X1 port1 port2 Model1D PARAMS:
+ R1=3.8
+ R2=0.0157
+ C= {Cpar}
+ K1=0.0003
+ K2=1.5
+ K3= {Ind}
+ K4=0.089
+ K5=0.0000097
+ L=0
+ Is=0
+ a=0
+ L_Z0=0
+ L_EL=0
+ L_F0=0E6
+ PkZ=8057.51443
.ends MSS1278T-562_imp

*======================================================================
* SPICE Model generated by Coilcraft
* Coilcraft Part Number : MSS1278T-682
* Inductance = 6.8uH
*======================================================================
* Model Parameters:
*   Valid Frequency Range = 0.1MHz-90MHz
*   Ambient Temperature = 25 degC
*   Inductor Frequency Model
*   Use model for Frequency Domain simulations
*======================================================================
.subckt MSS1278T-682_freq port1 port2 PARAMS: Cpar=8.4pF Ind=6.8uH
X1 port1 port2 Model1A PARAMS:
+ R1=4.2
+ R2=0.0191
+ C= {Cpar}
+ K1=0.000925
+ K2=2
+ K3= {Ind}
+ K4=0.13
+ K5=0.0000095
+ L=0
+ Is=0
+ a=0
+ L_Z0=0
+ L_EL=0
+ L_F0=0E6
+ PkZ=8483.72135
.ends MSS1278T-682_freq

*======================================================================
* SPICE Model generated by Coilcraft
* Coilcraft Part Number : MSS1278T-682
* Inductance = 6.8uH
*======================================================================
* Model Parameters:
*   Valid Frequency Range = 0.1MHz-90MHz
*   Ambient Temperature = 25 degC
*   Inductor Impedance Model
*   Use model for Time Domain simulations
*======================================================================
.subckt MSS1278T-682_imp port1 port2 PARAMS: Cpar=7.55pF Ind=6.8uH
X1 port1 port2 Model1D PARAMS:
+ R1=4.2
+ R2=0.0191
+ C= {Cpar}
+ K1=0.000925
+ K2=2
+ K3= {Ind}
+ K4=0.13
+ K5=0.0000095
+ L=0
+ Is=0
+ a=0
+ L_Z0=0
+ L_EL=0
+ L_F0=0E6
+ PkZ=8483.72135
.ends MSS1278T-682_imp

*======================================================================
* SPICE Model generated by Coilcraft
* Coilcraft Part Number : MSS1278T-822
* Inductance = 8.2uH
*======================================================================
* Model Parameters:
*   Valid Frequency Range = 0.1MHz-100MHz
*   Ambient Temperature = 25 degC
*   Inductor Frequency Model
*   Use model for Frequency Domain simulations
*======================================================================
.subckt MSS1278T-822_freq port1 port2 PARAMS: Cpar=5.1pF Ind=8.2uH
X1 port1 port2 Model1A PARAMS:
+ R1=5
+ R2=0.0203
+ C= {Cpar}
+ K1=0.00054
+ K2=2.2
+ K3= {Ind}
+ K4=0.2
+ K5=0.0000098
+ L=0
+ Is=0
+ a=0
+ L_Z0=0
+ L_EL=0
+ L_F0=0E6
+ PkZ=10638.2125
.ends MSS1278T-822_freq

*======================================================================
* SPICE Model generated by Coilcraft
* Coilcraft Part Number : MSS1278T-822
* Inductance = 8.2uH
*======================================================================
* Model Parameters:
*   Valid Frequency Range = 0.1MHz-100MHz
*   Ambient Temperature = 25 degC
*   Inductor Impedance Model
*   Use model for Time Domain simulations
*======================================================================
.subckt MSS1278T-822_imp port1 port2 PARAMS: Cpar=4.42pF Ind=8.2uH
X1 port1 port2 Model1D PARAMS:
+ R1=5
+ R2=0.0203
+ C= {Cpar}
+ K1=0.00054
+ K2=2.2
+ K3= {Ind}
+ K4=0.2
+ K5=0.0000098
+ L=0
+ Is=0
+ a=0
+ L_Z0=0
+ L_EL=0
+ L_F0=0E6
+ PkZ=10638.2125
.ends MSS1278T-822_imp

*======================================================================
* SPICE Model generated by Coilcraft
* Coilcraft Part Number : MSS1278T-103
* Inductance = 10uH
*======================================================================
* Model Parameters:
*   Valid Frequency Range = 0.1MHz-100MHz
*   Ambient Temperature = 25 degC
*   Inductor Frequency Model
*   Use model for Frequency Domain simulations
*======================================================================
.subckt MSS1278T-103_freq port1 port2 PARAMS: Cpar=9.9pF Ind=10uH
X1 port1 port2 Model1A PARAMS:
+ R1=7.2
+ R2=0.0218
+ C= {Cpar}
+ K1=0.00075
+ K2=3.7
+ K3= {Ind}
+ K4=0.29
+ K5=0.00000985
+ L=0
+ Is=0
+ a=0
+ L_Z0=0
+ L_EL=0
+ L_F0=0E6
+ PkZ=12987.1326
.ends MSS1278T-103_freq

*======================================================================
* SPICE Model generated by Coilcraft
* Coilcraft Part Number : MSS1278T-103
* Inductance = 10uH
*======================================================================
* Model Parameters:
*   Valid Frequency Range = 0.1MHz-100MHz
*   Ambient Temperature = 25 degC
*   Inductor Impedance Model
*   Use model for Time Domain simulations
*======================================================================
.subckt MSS1278T-103_imp port1 port2 PARAMS: Cpar=8.45pF Ind=10uH
X1 port1 port2 Model1D PARAMS:
+ R1=7.2
+ R2=0.0218
+ C= {Cpar}
+ K1=0.00075
+ K2=3.7
+ K3= {Ind}
+ K4=0.29
+ K5=0.00000985
+ L=0
+ Is=0
+ a=0
+ L_Z0=0
+ L_EL=0
+ L_F0=0E6
+ PkZ=12987.1326
.ends MSS1278T-103_imp

*======================================================================
* SPICE Model generated by Coilcraft
* Coilcraft Part Number : MSS1278T-123
* Inductance = 12uH
*======================================================================
* Model Parameters:
*   Valid Frequency Range = 0.1MHz-100MHz
*   Ambient Temperature = 25 degC
*   Inductor Frequency Model
*   Use model for Frequency Domain simulations
*======================================================================
.subckt MSS1278T-123_freq port1 port2 PARAMS: Cpar=9.2pF Ind=12uH
X1 port1 port2 Model1A PARAMS:
+ R1=6
+ R2=0.0232
+ C= {Cpar}
+ K1=0.000875
+ K2=3.9
+ K3= {Ind}
+ K4=0.37
+ K5=0.00000985
+ L=0
+ Is=0
+ a=0
+ L_Z0=0
+ L_EL=0
+ L_F0=0E6
+ PkZ=13904.9761
.ends MSS1278T-123_freq

*======================================================================
* SPICE Model generated by Coilcraft
* Coilcraft Part Number : MSS1278T-123
* Inductance = 12uH
*======================================================================
* Model Parameters:
*   Valid Frequency Range = 0.1MHz-100MHz
*   Ambient Temperature = 25 degC
*   Inductor Impedance Model
*   Use model for Time Domain simulations
*======================================================================
.subckt MSS1278T-123_imp port1 port2 PARAMS: Cpar=7.78pF Ind=12uH
X1 port1 port2 Model1D PARAMS:
+ R1=6
+ R2=0.0232
+ C= {Cpar}
+ K1=0.000875
+ K2=3.9
+ K3= {Ind}
+ K4=0.37
+ K5=0.00000985
+ L=0
+ Is=0
+ a=0
+ L_Z0=0
+ L_EL=0
+ L_F0=0E6
+ PkZ=13904.9761
.ends MSS1278T-123_imp

*======================================================================
* SPICE Model generated by Coilcraft
* Coilcraft Part Number : MSS1278T-153
* Inductance = 15uH
*======================================================================
* Model Parameters:
*   Valid Frequency Range = 0.1MHz-80MHz
*   Ambient Temperature = 25 degC
*   Inductor Frequency Model
*   Use model for Frequency Domain simulations
*======================================================================
.subckt MSS1278T-153_freq port1 port2 PARAMS: Cpar=11.6pF Ind=15uH
X1 port1 port2 Model1A PARAMS:
+ R1=6.2
+ R2=0.0279
+ C= {Cpar}
+ K1=0.00075
+ K2=4.8
+ K3= {Ind}
+ K4=0.37
+ K5=0.00000988
+ L=0
+ Is=0
+ a=0
+ L_Z0=0
+ L_EL=0
+ L_F0=0E6
+ PkZ=15163.8065
.ends MSS1278T-153_freq

*======================================================================
* SPICE Model generated by Coilcraft
* Coilcraft Part Number : MSS1278T-153
* Inductance = 15uH
*======================================================================
* Model Parameters:
*   Valid Frequency Range = 0.1MHz-80MHz
*   Ambient Temperature = 25 degC
*   Inductor Impedance Model
*   Use model for Time Domain simulations
*======================================================================
.subckt MSS1278T-153_imp port1 port2 PARAMS: Cpar=10.23pF Ind=15uH
X1 port1 port2 Model1D PARAMS:
+ R1=6.2
+ R2=0.0279
+ C= {Cpar}
+ K1=0.00075
+ K2=4.8
+ K3= {Ind}
+ K4=0.37
+ K5=0.00000988
+ L=0
+ Is=0
+ a=0
+ L_Z0=0
+ L_EL=0
+ L_F0=0E6
+ PkZ=15163.8065
.ends MSS1278T-153_imp

*======================================================================
* SPICE Model generated by Coilcraft
* Coilcraft Part Number : MSS1278T-183
* Inductance = 18uH
*======================================================================
* Model Parameters:
*   Valid Frequency Range = 0.1MHz-100MHz
*   Ambient Temperature = 25 degC
*   Inductor Frequency Model
*   Use model for Frequency Domain simulations
*======================================================================
.subckt MSS1278T-183_freq port1 port2 PARAMS: Cpar=11pF Ind=18uH
X1 port1 port2 Model1A PARAMS:
+ R1=4.6
+ R2=0.0308
+ C= {Cpar}
+ K1=0.004
+ K2=8.8
+ K3= {Ind}
+ K4=0.5
+ K5=0.0000097
+ L=0
+ Is=0
+ a=0
+ L_Z0=0
+ L_EL=0
+ L_F0=0E6
+ PkZ=21867.9117
.ends MSS1278T-183_freq

*======================================================================
* SPICE Model generated by Coilcraft
* Coilcraft Part Number : MSS1278T-183
* Inductance = 18uH
*======================================================================
* Model Parameters:
*   Valid Frequency Range = 0.1MHz-100MHz
*   Ambient Temperature = 25 degC
*   Inductor Impedance Model
*   Use model for Time Domain simulations
*======================================================================
.subckt MSS1278T-183_imp port1 port2 PARAMS: Cpar=9.56pF Ind=18uH
X1 port1 port2 Model1D PARAMS:
+ R1=4.6
+ R2=0.0308
+ C= {Cpar}
+ K1=0.004
+ K2=8.8
+ K3= {Ind}
+ K4=0.5
+ K5=0.0000097
+ L=0
+ Is=0
+ a=0
+ L_Z0=0
+ L_EL=0
+ L_F0=0E6
+ PkZ=21867.9117
.ends MSS1278T-183_imp

*======================================================================
* SPICE Model generated by Coilcraft
* Coilcraft Part Number : MSS1278T-223
* Inductance = 22uH
*======================================================================
* Model Parameters:
*   Valid Frequency Range = 0.1MHz-90MHz
*   Ambient Temperature = 25 degC
*   Inductor Frequency Model
*   Use model for Frequency Domain simulations
*======================================================================
.subckt MSS1278T-223_freq port1 port2 PARAMS: Cpar=8.2pF Ind=22uH
X1 port1 port2 Model1A PARAMS:
+ R1=6.5
+ R2=0.0355
+ C= {Cpar}
+ K1=0.008
+ K2=8.7
+ K3= {Ind}
+ K4=0.54
+ K5=0.0000093
+ L=0
+ Is=0
+ a=0
+ L_Z0=0
+ L_EL=0
+ L_F0=0E6
+ PkZ=21217.1443
.ends MSS1278T-223_freq

*======================================================================
* SPICE Model generated by Coilcraft
* Coilcraft Part Number : MSS1278T-223
* Inductance = 22uH
*======================================================================
* Model Parameters:
*   Valid Frequency Range = 0.1MHz-90MHz
*   Ambient Temperature = 25 degC
*   Inductor Impedance Model
*   Use model for Time Domain simulations
*======================================================================
.subckt MSS1278T-223_imp port1 port2 PARAMS: Cpar=7.25pF Ind=22uH
X1 port1 port2 Model1D PARAMS:
+ R1=6.5
+ R2=0.0355
+ C= {Cpar}
+ K1=0.008
+ K2=8.7
+ K3= {Ind}
+ K4=0.54
+ K5=0.0000093
+ L=0
+ Is=0
+ a=0
+ L_Z0=0
+ L_EL=0
+ L_F0=0E6
+ PkZ=21217.1443
.ends MSS1278T-223_imp

*======================================================================
* SPICE Model generated by Coilcraft
* Coilcraft Part Number : MSS1278T-273
* Inductance = 27uH
*======================================================================
* Model Parameters:
*   Valid Frequency Range = 0.1MHz-70MHz
*   Ambient Temperature = 25 degC
*   Inductor Frequency Model
*   Use model for Frequency Domain simulations
*======================================================================
.subckt MSS1278T-273_freq port1 port2 PARAMS: Cpar=11.2pF Ind=27uH
X1 port1 port2 Model1A PARAMS:
+ R1=4.2
+ R2=0.045
+ C= {Cpar}
+ K1=0.001
+ K2=8.6
+ K3= {Ind}
+ K4=0.47
+ K5=0.00000992
+ L=0
+ Is=0
+ a=0
+ L_Z0=0
+ L_EL=0
+ L_F0=0E6
+ PkZ=24423.3829
.ends MSS1278T-273_freq

*======================================================================
* SPICE Model generated by Coilcraft
* Coilcraft Part Number : MSS1278T-273
* Inductance = 27uH
*======================================================================
* Model Parameters:
*   Valid Frequency Range = 0.1MHz-70MHz
*   Ambient Temperature = 25 degC
*   Inductor Impedance Model
*   Use model for Time Domain simulations
*======================================================================
.subckt MSS1278T-273_imp port1 port2 PARAMS: Cpar=10.32pF Ind=27uH
X1 port1 port2 Model1D PARAMS:
+ R1=4.2
+ R2=0.045
+ C= {Cpar}
+ K1=0.001
+ K2=8.6
+ K3= {Ind}
+ K4=0.47
+ K5=0.00000992
+ L=0
+ Is=0
+ a=0
+ L_Z0=0
+ L_EL=0
+ L_F0=0E6
+ PkZ=24423.3829
.ends MSS1278T-273_imp

*======================================================================
* SPICE Model generated by Coilcraft
* Coilcraft Part Number : MSS1278T-333
* Inductance = 33uH
*======================================================================
* Model Parameters:
*   Valid Frequency Range = 0.1MHz-30MHz
*   Ambient Temperature = 25 degC
*   Inductor Frequency Model
*   Use model for Frequency Domain simulations
*======================================================================
.subckt MSS1278T-333_freq port1 port2 PARAMS: Cpar=14.3pF Ind=33uH
X1 port1 port2 Model1A PARAMS:
+ R1=15
+ R2=0.0619
+ C= {Cpar}
+ K1=0.002
+ K2=11
+ K3= {Ind}
+ K4=0.69
+ K5=0.0000099
+ L=0
+ Is=0
+ a=0
+ L_Z0=0
+ L_EL=0
+ L_F0=0E6
+ PkZ=23475.7741
.ends MSS1278T-333_freq

*======================================================================
* SPICE Model generated by Coilcraft
* Coilcraft Part Number : MSS1278T-333
* Inductance = 33uH
*======================================================================
* Model Parameters:
*   Valid Frequency Range = 0.1MHz-30MHz
*   Ambient Temperature = 25 degC
*   Inductor Impedance Model
*   Use model for Time Domain simulations
*======================================================================
.subckt MSS1278T-333_imp port1 port2 PARAMS: Cpar=13.02pF Ind=33uH
X1 port1 port2 Model1D PARAMS:
+ R1=15
+ R2=0.0619
+ C= {Cpar}
+ K1=0.002
+ K2=11
+ K3= {Ind}
+ K4=0.69
+ K5=0.0000099
+ L=0
+ Is=0
+ a=0
+ L_Z0=0
+ L_EL=0
+ L_F0=0E6
+ PkZ=23475.7741
.ends MSS1278T-333_imp

*======================================================================
* SPICE Model generated by Coilcraft
* Coilcraft Part Number : MSS1278T-393
* Inductance = 39uH
*======================================================================
* Model Parameters:
*   Valid Frequency Range = 0.1MHz-40MHz
*   Ambient Temperature = 25 degC
*   Inductor Frequency Model
*   Use model for Frequency Domain simulations
*======================================================================
.subckt MSS1278T-393_freq port1 port2 PARAMS: Cpar=13.7pF Ind=39uH
X1 port1 port2 Model1A PARAMS:
+ R1=12
+ R2=0.0691
+ C= {Cpar}
+ K1=0.002
+ K2=13
+ K3= {Ind}
+ K4=0.84
+ K5=0.00000994
+ L=0
+ Is=0
+ a=0
+ L_Z0=0
+ L_EL=0
+ L_F0=0E6
+ PkZ=28288.0924
.ends MSS1278T-393_freq

*======================================================================
* SPICE Model generated by Coilcraft
* Coilcraft Part Number : MSS1278T-393
* Inductance = 39uH
*======================================================================
* Model Parameters:
*   Valid Frequency Range = 0.1MHz-40MHz
*   Ambient Temperature = 25 degC
*   Inductor Impedance Model
*   Use model for Time Domain simulations
*======================================================================
.subckt MSS1278T-393_imp port1 port2 PARAMS: Cpar=12.45pF Ind=39uH
X1 port1 port2 Model1D PARAMS:
+ R1=12
+ R2=0.0691
+ C= {Cpar}
+ K1=0.002
+ K2=13
+ K3= {Ind}
+ K4=0.84
+ K5=0.00000994
+ L=0
+ Is=0
+ a=0
+ L_Z0=0
+ L_EL=0
+ L_F0=0E6
+ PkZ=28288.0924
.ends MSS1278T-393_imp

*======================================================================
* SPICE Model generated by Coilcraft
* Coilcraft Part Number : MSS1278T-473
* Inductance = 47uH
*======================================================================
* Model Parameters:
*   Valid Frequency Range = 0.1MHz-40MHz
*   Ambient Temperature = 25 degC
*   Inductor Frequency Model
*   Use model for Frequency Domain simulations
*======================================================================
.subckt MSS1278T-473_freq port1 port2 PARAMS: Cpar=11.6pF Ind=47uH
X1 port1 port2 Model1A PARAMS:
+ R1=9
+ R2=0.0723
+ C= {Cpar}
+ K1=0.003
+ K2=16
+ K3= {Ind}
+ K4=1.5
+ K5=0.00000994
+ L=0
+ Is=0
+ a=0
+ L_Z0=0
+ L_EL=0
+ L_F0=0E6
+ PkZ=35687.7063
.ends MSS1278T-473_freq

*======================================================================
* SPICE Model generated by Coilcraft
* Coilcraft Part Number : MSS1278T-473
* Inductance = 47uH
*======================================================================
* Model Parameters:
*   Valid Frequency Range = 0.1MHz-40MHz
*   Ambient Temperature = 25 degC
*   Inductor Impedance Model
*   Use model for Time Domain simulations
*======================================================================
.subckt MSS1278T-473_imp port1 port2 PARAMS: Cpar=10.04pF Ind=47uH
X1 port1 port2 Model1D PARAMS:
+ R1=9
+ R2=0.0723
+ C= {Cpar}
+ K1=0.003
+ K2=16
+ K3= {Ind}
+ K4=1.5
+ K5=0.00000994
+ L=0
+ Is=0
+ a=0
+ L_Z0=0
+ L_EL=0
+ L_F0=0E6
+ PkZ=35687.7063
.ends MSS1278T-473_imp

*======================================================================
* SPICE Model generated by Coilcraft
* Coilcraft Part Number : MSS1278T-563
* Inductance = 56uH
*======================================================================
* Model Parameters:
*   Valid Frequency Range = 0.1MHz-30MHz
*   Ambient Temperature = 25 degC
*   Inductor Frequency Model
*   Use model for Frequency Domain simulations
*======================================================================
.subckt MSS1278T-563_freq port1 port2 PARAMS: Cpar=15.9pF Ind=56uH
X1 port1 port2 Model1A PARAMS:
+ R1=12
+ R2=0.0802
+ C= {Cpar}
+ K1=0.003
+ K2=18
+ K3= {Ind}
+ K4=1.7
+ K5=0.00001
+ L=0
+ Is=0
+ a=0
+ L_Z0=0
+ L_EL=0
+ L_F0=0E6
+ PkZ=33878.5063
.ends MSS1278T-563_freq

*======================================================================
* SPICE Model generated by Coilcraft
* Coilcraft Part Number : MSS1278T-563
* Inductance = 56uH
*======================================================================
* Model Parameters:
*   Valid Frequency Range = 0.1MHz-30MHz
*   Ambient Temperature = 25 degC
*   Inductor Impedance Model
*   Use model for Time Domain simulations
*======================================================================
.subckt MSS1278T-563_imp port1 port2 PARAMS: Cpar=13.98pF Ind=56uH
X1 port1 port2 Model1D PARAMS:
+ R1=12
+ R2=0.0802
+ C= {Cpar}
+ K1=0.003
+ K2=18
+ K3= {Ind}
+ K4=1.7
+ K5=0.00001
+ L=0
+ Is=0
+ a=0
+ L_Z0=0
+ L_EL=0
+ L_F0=0E6
+ PkZ=33878.5063