*======================================================================
* SPICE Model generated by Coilcraft
* Coilcraft Part Number : MSS1246T-102
* Inductance = 1uH
*======================================================================
* Model Parameters:
*   Valid Frequency Range = 0.1MHz-100MHz
*   Ambient Temperature = 25 degC
*   Inductor Frequency Model
*   Use model for Frequency Domain simulations
*======================================================================
.subckt MSS1246T-102_freq port1 port2 PARAMS: Cpar=3.46pF Ind=1uH
X1 port1 port2 Model1A PARAMS:
+ R1=26
+ R2=0.0063
+ C= {Cpar}
+ K1=0.00013
+ K2=0.3
+ K3= {Ind}
+ K4=0.02
+ K5=0.0000096
+ L=0
+ Is=0
+ a=0
+ L_Z0=0
+ L_EL=0
+ L_F0=0E6
+ PkZ=2191.47077
.ends MSS1246T-102_freq

*======================================================================
* SPICE Model generated by Coilcraft
* Coilcraft Part Number : MSS1246T-102
* Inductance = 1uH
*======================================================================
* Model Parameters:
*   Valid Frequency Range = 0.1MHz-100MHz
*   Ambient Temperature = 25 degC
*   Inductor Impedance Model
*   Use model for Time Domain simulations
*======================================================================
.subckt MSS1246T-102_imp port1 port2 PARAMS: Cpar=3.00pF Ind=1uH
X1 port1 port2 Model1D PARAMS:
+ R1=26
+ R2=0.0063
+ C= {Cpar}
+ K1=0.00013
+ K2=0.3
+ K3= {Ind}
+ K4=0.02
+ K5=0.0000096
+ L=0
+ Is=0
+ a=0
+ L_Z0=0
+ L_EL=0
+ L_F0=0E6
+ PkZ=2191.47077
.ends MSS1246T-102_imp

*======================================================================
* SPICE Model generated by Coilcraft
* Coilcraft Part Number : MSS1246T-152
* Inductance = 1.5uH
*======================================================================
* Model Parameters:
*   Valid Frequency Range = 0.1MHz-100MHz
*   Ambient Temperature = 25 degC
*   Inductor Frequency Model
*   Use model for Frequency Domain simulations
*======================================================================
.subckt MSS1246T-152_freq port1 port2 PARAMS: Cpar=4.2pF Ind=1.5uH
X1 port1 port2 Model1A PARAMS:
+ R1=19
+ R2=0.0097
+ C= {Cpar}
+ K1=0.00015
+ K2=0.48
+ K3= {Ind}
+ K4=0.03
+ K5=0.0000096
+ L=0
+ Is=0
+ a=0
+ L_Z0=0
+ L_EL=0
+ L_F0=0E6
+ PkZ=3146.84817
.ends MSS1246T-152_freq

*======================================================================
* SPICE Model generated by Coilcraft
* Coilcraft Part Number : MSS1246T-152
* Inductance = 1.5uH
*======================================================================
* Model Parameters:
*   Valid Frequency Range = 0.1MHz-100MHz
*   Ambient Temperature = 25 degC
*   Inductor Impedance Model
*   Use model for Time Domain simulations
*======================================================================
.subckt MSS1246T-152_imp port1 port2 PARAMS: Cpar=3.66pF Ind=1.5uH
X1 port1 port2 Model1D PARAMS:
+ R1=19
+ R2=0.0097
+ C= {Cpar}
+ K1=0.00015
+ K2=0.48
+ K3= {Ind}
+ K4=0.03
+ K5=0.0000096
+ L=0
+ Is=0
+ a=0
+ L_Z0=0
+ L_EL=0
+ L_F0=0E6
+ PkZ=3146.84817
.ends MSS1246T-152_imp

*======================================================================
* SPICE Model generated by Coilcraft
* Coilcraft Part Number : MSS1246T-272
* Inductance = 2.7uH
*======================================================================
* Model Parameters:
*   Valid Frequency Range = 0.1MHz-80MHz
*   Ambient Temperature = 25 degC
*   Inductor Frequency Model
*   Use model for Frequency Domain simulations
*======================================================================
.subckt MSS1246T-272_freq port1 port2 PARAMS: Cpar=3.47pF Ind=2.7uH
X1 port1 port2 Model1A PARAMS:
+ R1=25
+ R2=0.0115
+ C= {Cpar}
+ K1=0.00018
+ K2=0.75
+ K3= {Ind}
+ K4=0.06
+ K5=0.0000098
+ L=0
+ Is=0
+ a=0
+ L_Z0=0
+ L_EL=0
+ L_F0=0E6
+ PkZ=4598.82405
.ends MSS1246T-272_freq

*======================================================================
* SPICE Model generated by Coilcraft
* Coilcraft Part Number : MSS1246T-272
* Inductance = 2.7uH
*======================================================================
* Model Parameters:
*   Valid Frequency Range = 0.1MHz-80MHz
*   Ambient Temperature = 25 degC
*   Inductor Impedance Model
*   Use model for Time Domain simulations
*======================================================================
.subckt MSS1246T-272_imp port1 port2 PARAMS: Cpar=2.99pF Ind=2.7uH
X1 port1 port2 Model1D PARAMS:
+ R1=25
+ R2=0.0115
+ C= {Cpar}
+ K1=0.00018
+ K2=0.75
+ K3= {Ind}
+ K4=0.06
+ K5=0.0000098
+ L=0
+ Is=0
+ a=0
+ L_Z0=0
+ L_EL=0
+ L_F0=0E6
+ PkZ=4598.82405
.ends MSS1246T-272_imp

*======================================================================
* SPICE Model generated by Coilcraft
* Coilcraft Part Number : MSS1246T-332
* Inductance = 3.3uH
*======================================================================
* Model Parameters:
*   Valid Frequency Range = 0.1MHz-70MHz
*   Ambient Temperature = 25 degC
*   Inductor Frequency Model
*   Use model for Frequency Domain simulations
*======================================================================
.subckt MSS1246T-332_freq port1 port2 PARAMS: Cpar=3.65pF Ind=3.3uH
X1 port1 port2 Model1A PARAMS:
+ R1=22
+ R2=0.0168
+ C= {Cpar}
+ K1=0.00016
+ K2=1.1
+ K3= {Ind}
+ K4=0.09
+ K5=0.0000099
+ L=0
+ Is=0
+ a=0
+ L_Z0=0
+ L_EL=0
+ L_F0=0E6
+ PkZ=6288.76658
.ends MSS1246T-332_freq

*======================================================================
* SPICE Model generated by Coilcraft
* Coilcraft Part Number : MSS1246T-332
* Inductance = 3.3uH
*======================================================================
* Model Parameters:
*   Valid Frequency Range = 0.1MHz-70MHz
*   Ambient Temperature = 25 degC
*   Inductor Impedance Model
*   Use model for Time Domain simulations
*======================================================================
.subckt MSS1246T-332_imp port1 port2 PARAMS: Cpar=3.04pF Ind=3.3uH
X1 port1 port2 Model1D PARAMS:
+ R1=22
+ R2=0.0168
+ C= {Cpar}
+ K1=0.00016
+ K2=1.1
+ K3= {Ind}
+ K4=0.09
+ K5=0.0000099
+ L=0
+ Is=0
+ a=0
+ L_Z0=0
+ L_EL=0
+ L_F0=0E6
+ PkZ=6288.76658
.ends MSS1246T-332_imp

*======================================================================
* SPICE Model generated by Coilcraft
* Coilcraft Part Number : MSS1246T-472
* Inductance = 4.7uH
*======================================================================
* Model Parameters:
*   Valid Frequency Range = 0.1MHz-50MHz
*   Ambient Temperature = 25 degC
*   Inductor Frequency Model
*   Use model for Frequency Domain simulations
*======================================================================
.subckt MSS1246T-472_freq port1 port2 PARAMS: Cpar=3.68pF Ind=4.7uH
X1 port1 port2 Model1A PARAMS:
+ R1=48
+ R2=0.0213
+ C= {Cpar}
+ K1=0.0003
+ K2=1.56
+ K3= {Ind}
+ K4=0.1
+ K5=0.0000098
+ L=0
+ Is=0
+ a=0
+ L_Z0=0
+ L_EL=0
+ L_F0=0E6
+ PkZ=6902.58518
.ends MSS1246T-472_freq

*======================================================================
* SPICE Model generated by Coilcraft
* Coilcraft Part Number : MSS1246T-472
* Inductance = 4.7uH
*======================================================================
* Model Parameters:
*   Valid Frequency Range = 0.1MHz-50MHz
*   Ambient Temperature = 25 degC
*   Inductor Impedance Model
*   Use model for Time Domain simulations
*======================================================================
.subckt MSS1246T-472_imp port1 port2 PARAMS: Cpar=3.22pF Ind=4.7uH
X1 port1 port2 Model1D PARAMS:
+ R1=48
+ R2=0.0213
+ C= {Cpar}
+ K1=0.0003
+ K2=1.56
+ K3= {Ind}
+ K4=0.1
+ K5=0.0000098
+ L=0
+ Is=0
+ a=0
+ L_Z0=0
+ L_EL=0
+ L_F0=0E6
+ PkZ=6902.58518
.ends MSS1246T-472_imp

*======================================================================
* SPICE Model generated by Coilcraft
* Coilcraft Part Number : MSS1246T-562
* Inductance = 5.6uH
*======================================================================
* Model Parameters:
*   Valid Frequency Range = 0.1MHz-50MHz
*   Ambient Temperature = 25 degC
*   Inductor Frequency Model
*   Use model for Frequency Domain simulations
*======================================================================
.subckt MSS1246T-562_freq port1 port2 PARAMS: Cpar=4.31pF Ind=5.6uH
X1 port1 port2 Model1A PARAMS:
+ R1=27
+ R2=0.0246
+ C= {Cpar}
+ K1=0.00032
+ K2=2.2
+ K3= {Ind}
+ K4=0.14
+ K5=0.0000099
+ L=0
+ Is=0
+ a=0
+ L_Z0=0
+ L_EL=0
+ L_F0=0E6
+ PkZ=9725.15346
.ends MSS1246T-562_freq

*======================================================================
* SPICE Model generated by Coilcraft
* Coilcraft Part Number : MSS1246T-562
* Inductance = 5.6uH
*======================================================================
* Model Parameters:
*   Valid Frequency Range = 0.1MHz-50MHz
*   Ambient Temperature = 25 degC
*   Inductor Impedance Model
*   Use model for Time Domain simulations
*======================================================================
.subckt MSS1246T-562_imp port1 port2 PARAMS: Cpar=3.69pF Ind=5.6uH
X1 port1 port2 Model1D PARAMS:
+ R1=27
+ R2=0.0246
+ C= {Cpar}
+ K1=0.00032
+ K2=2.2
+ K3= {Ind}
+ K4=0.14
+ K5=0.0000099
+ L=0
+ Is=0
+ a=0
+ L_Z0=0
+ L_EL=0
+ L_F0=0E6
+ PkZ=9725.15346
.ends MSS1246T-562_imp

*======================================================================
* SPICE Model generated by Coilcraft
* Coilcraft Part Number : MSS1246T-682
* Inductance = 6.8uH
*======================================================================
* Model Parameters:
*   Valid Frequency Range = 0.1MHz-40MHz
*   Ambient Temperature = 25 degC
*   Inductor Frequency Model
*   Use model for Frequency Domain simulations
*======================================================================
.subckt MSS1246T-682_freq port1 port2 PARAMS: Cpar=5.24pF Ind=6.8uH
X1 port1 port2 Model1A PARAMS:
+ R1=32
+ R2=0.0277
+ C= {Cpar}
+ K1=0.00038
+ K2=2.6
+ K3= {Ind}
+ K4=0.17
+ K5=0.0000099
+ L=0
+ Is=0
+ a=0
+ L_Z0=0
+ L_EL=0
+ L_F0=0E6
+ PkZ=9780.6073
.ends MSS1246T-682_freq

*======================================================================
* SPICE Model generated by Coilcraft
* Coilcraft Part Number : MSS1246T-682
* Inductance = 6.8uH
*======================================================================
* Model Parameters:
*   Valid Frequency Range = 0.1MHz-40MHz
*   Ambient Temperature = 25 degC
*   Inductor Impedance Model
*   Use model for Time Domain simulations
*======================================================================
.subckt MSS1246T-682_imp port1 port2 PARAMS: Cpar=4.51pF Ind=6.8uH
X1 port1 port2 Model1D PARAMS:
+ R1=32
+ R2=0.0277
+ C= {Cpar}
+ K1=0.00038
+ K2=2.6
+ K3= {Ind}
+ K4=0.17
+ K5=0.0000099
+ L=0
+ Is=0
+ a=0
+ L_Z0=0
+ L_EL=0
+ L_F0=0E6
+ PkZ=9780.6073
.ends MSS1246T-682_imp

*======================================================================
* SPICE Model generated by Coilcraft
* Coilcraft Part Number : MSS1246T-822
* Inductance = 8.2uH
*======================================================================
* Model Parameters:
*   Valid Frequency Range = 0.1MHz-40MHz
*   Ambient Temperature = 25 degC
*   Inductor Frequency Model
*   Use model for Frequency Domain simulations
*======================================================================
.subckt MSS1246T-822_freq port1 port2 PARAMS: Cpar=4.76pF Ind=8.2uH
X1 port1 port2 Model1A PARAMS:
+ R1=35
+ R2=0.0305
+ C= {Cpar}
+ K1=0.0004
+ K2=3
+ K3= {Ind}
+ K4=0.2
+ K5=0.0000099
+ L=0
+ Is=0
+ a=0
+ L_Z0=0
+ L_EL=0
+ L_F0=0E6
+ PkZ=11286.7005
.ends MSS1246T-822_freq

*======================================================================
* SPICE Model generated by Coilcraft
* Coilcraft Part Number : MSS1246T-822
* Inductance = 8.2uH
*======================================================================
* Model Parameters:
*   Valid Frequency Range = 0.1MHz-40MHz
*   Ambient Temperature = 25 degC
*   Inductor Impedance Model
*   Use model for Time Domain simulations
*======================================================================
.subckt MSS1246T-822_imp port1 port2 PARAMS: Cpar=4.12pF Ind=8.2uH
X1 port1 port2 Model1D PARAMS:
+ R1=35
+ R2=0.0305
+ C= {Cpar}
+ K1=0.0004
+ K2=3
+ K3= {Ind}
+ K4=0.2
+ K5=0.0000099
+ L=0
+ Is=0
+ a=0
+ L_Z0=0
+ L_EL=0
+ L_F0=0E6
+ PkZ=11286.7005
.ends MSS1246T-822_imp

*======================================================================
* SPICE Model generated by Coilcraft
* Coilcraft Part Number : MSS1246T-103
* Inductance = 10uH
*======================================================================
* Model Parameters:
*   Valid Frequency Range = 0.1MHz-40MHz
*   Ambient Temperature = 25 degC
*   Inductor Frequency Model
*   Use model for Frequency Domain simulations
*======================================================================
.subckt MSS1246T-103_freq port1 port2 PARAMS: Cpar=4.11pF Ind=10uH
X1 port1 port2 Model1A PARAMS:
+ R1=50
+ R2=0.0409
+ C= {Cpar}
+ K1=0.00026
+ K2=3
+ K3= {Ind}
+ K4=0.22
+ K5=0.0000099
+ L=0
+ Is=0
+ a=0
+ L_Z0=0
+ L_EL=0
+ L_F0=0E6
+ PkZ=11264.0586
.ends MSS1246T-103_freq

*======================================================================
* SPICE Model generated by Coilcraft
* Coilcraft Part Number : MSS1246T-103
* Inductance = 10uH
*======================================================================
* Model Parameters:
*   Valid Frequency Range = 0.1MHz-40MHz
*   Ambient Temperature = 25 degC
*   Inductor Impedance Model
*   Use model for Time Domain simulations
*======================================================================
.subckt MSS1246T-103_imp port1 port2 PARAMS: Cpar=3.61pF Ind=10uH
X1 port1 port2 Model1D PARAMS:
+ R1=50
+ R2=0.0409
+ C= {Cpar}
+ K1=0.00026
+ K2=3
+ K3= {Ind}
+ K4=0.22
+ K5=0.0000099
+ L=0
+ Is=0
+ a=0
+ L_Z0=0
+ L_EL=0
+ L_F0=0E6
+ PkZ=11264.0586
.ends MSS1246T-103_imp

*======================================================================
* SPICE Model generated by Coilcraft
* Coilcraft Part Number : MSS1246T-123
* Inductance = 12uH
*======================================================================
* Model Parameters:
*   Valid Frequency Range = 0.1MHz-40MHz
*   Ambient Temperature = 25 degC
*   Inductor Frequency Model
*   Use model for Frequency Domain simulations
*======================================================================
.subckt MSS1246T-123_freq port1 port2 PARAMS: Cpar=4.24pF Ind=12uH
X1 port1 port2 Model1A PARAMS:
+ R1=30
+ R2=0.0433
+ C= {Cpar}
+ K1=0.00026
+ K2=3.8
+ K3= {Ind}
+ K4=0.28
+ K5=0.00000992
+ L=0
+ Is=0
+ a=0
+ L_Z0=0
+ L_EL=0
+ L_F0=0E6
+ PkZ=15033.0939
.ends MSS1246T-123_freq

*======================================================================
* SPICE Model generated by Coilcraft
* Coilcraft Part Number : MSS1246T-123
* Inductance = 12uH
*======================================================================
* Model Parameters:
*   Valid Frequency Range = 0.1MHz-40MHz
*   Ambient Temperature = 25 degC
*   Inductor Impedance Model
*   Use model for Time Domain simulations
*======================================================================
.subckt MSS1246T-123_imp port1 port2 PARAMS: Cpar=3.71pF Ind=12uH
X1 port1 port2 Model1D PARAMS:
+ R1=30
+ R2=0.0433
+ C= {Cpar}
+ K1=0.00026
+ K2=3.8
+ K3= {Ind}
+ K4=0.28
+ K5=0.00000992
+ L=0
+ Is=0
+ a=0
+ L_Z0=0
+ L_EL=0
+ L_F0=0E6
+ PkZ=15033.0939
.ends MSS1246T-123_imp

*======================================================================
* SPICE Model generated by Coilcraft
* Coilcraft Part Number : MSS1246T-153
* Inductance = 15uH
*======================================================================
* Model Parameters:
*   Valid Frequency Range = 0.1MHz-30MHz
*   Ambient Temperature = 25 degC
*   Inductor Frequency Model
*   Use model for Frequency Domain simulations
*======================================================================
.subckt MSS1246T-153_freq port1 port2 PARAMS: Cpar=4.72pF Ind=15uH
X1 port1 port2 Model1A PARAMS:
+ R1=24
+ R2=0.0541
+ C= {Cpar}
+ K1=0.00016
+ K2=4.8
+ K3= {Ind}
+ K4=0.33
+ K5=0.00000995
+ L=0
+ Is=0
+ a=0
+ L_Z0=0
+ L_EL=0
+ L_F0=0E6
+ PkZ=18097.0375
.ends MSS1246T-153_freq

*======================================================================
* SPICE Model generated by Coilcraft
* Coilcraft Part Number : MSS1246T-153
* Inductance = 15uH
*======================================================================
* Model Parameters:
*   Valid Frequency Range = 0.1MHz-30MHz
*   Ambient Temperature = 25 degC
*   Inductor Impedance Model
*   Use model for Time Domain simulations
*======================================================================
.subckt MSS1246T-153_imp port1 port2 PARAMS: Cpar=4.18pF Ind=15uH
X1 port1 port2 Model1D PARAMS:
+ R1=24
+ R2=0.0541
+ C= {Cpar}
+ K1=0.00016
+ K2=4.8
+ K3= {Ind}
+ K4=0.33
+ K5=0.00000995
+ L=0
+ Is=0
+ a=0
+ L_Z0=0
+ L_EL=0
+ L_F0=0E6
+ PkZ=18097.0375
.ends MSS1246T-153_imp

*======================================================================
* SPICE Model generated by Coilcraft
* Coilcraft Part Number : MSS1246T-183
* Inductance = 18uH
*======================================================================
* Model Parameters:
*   Valid Frequency Range = 0.1MHz-30MHz
*   Ambient Temperature = 25 degC
*   Inductor Frequency Model
*   Use model for Frequency Domain simulations
*======================================================================
.subckt MSS1246T-183_freq port1 port2 PARAMS: Cpar=4.8pF Ind=18uH
X1 port1 port2 Model1A PARAMS:
+ R1=30
+ R2=0.0567
+ C= {Cpar}
+ K1=0.0002
+ K2=6.2
+ K3= {Ind}
+ K4=0.4
+ K5=0.00000998
+ L=0
+ Is=0
+ a=0
+ L_Z0=0
+ L_EL=0
+ L_F0=0E6
+ PkZ=21226.2905
.ends MSS1246T-183_freq

*======================================================================
* SPICE Model generated by Coilcraft
* Coilcraft Part Number : MSS1246T-183
* Inductance = 18uH
*======================================================================
* Model Parameters:
*   Valid Frequency Range = 0.1MHz-30MHz
*   Ambient Temperature = 25 degC
*   Inductor Impedance Model
*   Use model for Time Domain simulations
*======================================================================
.subckt MSS1246T-183_imp port1 port2 PARAMS: Cpar=4.25pF Ind=18uH
X1 port1 port2 Model1D PARAMS:
+ R1=30
+ R2=0.0567
+ C= {Cpar}
+ K1=0.0002
+ K2=6.2
+ K3= {Ind}
+ K4=0.4
+ K5=0.00000998
+ L=0
+ Is=0
+ a=0
+ L_Z0=0
+ L_EL=0
+ L_F0=0E6
+ PkZ=21226.2905
.ends MSS1246T-183_imp

*======================================================================
* SPICE Model generated by Coilcraft
* Coilcraft Part Number : MSS1246T-223
* Inductance = 22uH
*======================================================================
* Model Parameters:
*   Valid Frequency Range = 0.1MHz-30MHz
*   Ambient Temperature = 25 degC
*   Inductor Frequency Model
*   Use model for Frequency Domain simulations
*======================================================================
.subckt MSS1246T-223_freq port1 port2 PARAMS: Cpar=4.37pF Ind=22uH
X1 port1 port2 Model1A PARAMS:
+ R1=40
+ R2=0.067
+ C= {Cpar}
+ K1=0.0002
+ K2=7.1
+ K3= {Ind}
+ K4=0.52
+ K5=0.00000998
+ L=0
+ Is=0
+ a=0
+ L_Z0=0
+ L_EL=0
+ L_F0=0E6
+ PkZ=23209.9758
.ends MSS1246T-223_freq

*======================================================================
* SPICE Model generated by Coilcraft
* Coilcraft Part Number : MSS1246T-223
* Inductance = 22uH
*======================================================================
* Model Parameters:
*   Valid Frequency Range = 0.1MHz-30MHz
*   Ambient Temperature = 25 degC
*   Inductor Impedance Model
*   Use model for Time Domain simulations
*======================================================================
.subckt MSS1246T-223_imp port1 port2 PARAMS: Cpar=3.84pF Ind=22uH
X1 port1 port2 Model1D PARAMS:
+ R1=40
+ R2=0.067
+ C= {Cpar}
+ K1=0.0002
+ K2=7.1
+ K3= {Ind}
+ K4=0.52
+ K5=0.00000998
+ L=0
+ Is=0
+ a=0
+ L_Z0=0
+ L_EL=0
+ L_F0=0E6
+ PkZ=23209.9758
.ends MSS1246T-223_imp

*======================================================================
* SPICE Model generated by Coilcraft
* Coilcraft Part Number : MSS1246T-273
* Inductance = 27uH
*======================================================================
* Model Parameters:
*   Valid Frequency Range = 0.1MHz-30MHz
*   Ambient Temperature = 25 degC
*   Inductor Frequency Model
*   Use model for Frequency Domain simulations
*======================================================================
.subckt MSS1246T-273_freq port1 port2 PARAMS: Cpar=4.71pF Ind=27uH
X1 port1 port2 Model1A PARAMS:
+ R1=27
+ R2=0.075
+ C= {Cpar}
+ K1=0.0003
+ K2=8.2
+ K3= {Ind}
+ K4=0.67
+ K5=0.00000997
+ L=0
+ Is=0
+ a=0
+ L_Z0=0
+ L_EL=0
+ L_F0=0E6
+ PkZ=27006.9497
.ends MSS1246T-273_freq

*======================================================================
* SPICE Model generated by Coilcraft
* Coilcraft Part Number : MSS1246T-273
* Inductance = 27uH
*======================================================================
* Model Parameters:
*   Valid Frequency Range = 0.1MHz-30MHz
*   Ambient Temperature = 25 degC
*   Inductor Impedance Model
*   Use model for Time Domain simulations
*======================================================================
.subckt MSS1246T-273_imp port1 port2 PARAMS: Cpar=4.13pF Ind=27uH
X1 port1 port2 Model1D PARAMS:
+ R1=27
+ R2=0.075
+ C= {Cpar}
+ K1=0.0003
+ K2=8.2
+ K3= {Ind}
+ K4=0.67
+ K5=0.00000997
+ L=0
+ Is=0
+ a=0
+ L_Z0=0
+ L_EL=0
+ L_F0=0E6
+ PkZ=27006.9497
.ends MSS1246T-273_imp

*======================================================================
* SPICE Model generated by Coilcraft
* Coilcraft Part Number : MSS1246T-333
* Inductance = 33uH
*======================================================================
* Model Parameters:
*   Valid Frequency Range = 0.1MHz-20MHz
*   Ambient Temperature = 25 degC
*   Inductor Frequency Model
*   Use model for Frequency Domain simulations
*======================================================================
.subckt MSS1246T-333_freq port1 port2 PARAMS: Cpar=5pF Ind=33uH
X1 port1 port2 Model1A PARAMS:
+ R1=30
+ R2=0.0908
+ C= {Cpar}
+ K1=0.0003
+ K2=10
+ K3= {Ind}
+ K4=0.8
+ K5=0.00000998
+ L=0
+ Is=0
+ a=0
+ L_Z0=0
+ L_EL=0
+ L_F0=0E6
+ PkZ=30410.8528
.ends MSS1246T-333_freq

*======================================================================
* SPICE Model generated by Coilcraft
* Coilcraft Part Number : MSS1246T-333
* Inductance = 33uH
*======================================================================
* Model Parameters:
*   Valid Frequency Range = 0.1MHz-20MHz
*   Ambient Temperature = 25 degC
*   Inductor Impedance Model
*   Use model for Time Domain simulations
*======================================================================
.subckt MSS1246T-333_imp port1 port2 PARAMS: Cpar=4.42pF Ind=33uH
X1 port1 port2 Model1D PARAMS:
+ R1=30
+ R2=0.0908
+ C= {Cpar}
+ K1=0.0003
+ K2=10
+ K3= {Ind}
+ K4=0.8
+ K5=0.00000998
+ L=0
+ Is=0
+ a=0
+ L_Z0=0
+ L_EL=0
+ L_F0=0E6
+ PkZ=30410.8528
.ends MSS1246T-333_imp

*======================================================================
* SPICE Model generated by Coilcraft
* Coilcraft Part Number : MSS1246T-393
* Inductance = 39uH
*======================================================================
* Model Parameters:
*   Valid Frequency Range = 0.1MHz-20MHz
*   Ambient Temperature = 25 degC
*   Inductor Frequency Model
*   Use model for Frequency Domain simulations
*======================================================================
.subckt MSS1246T-393_freq port1 port2 PARAMS: Cpar=4.9pF Ind=39uH
X1 port1 port2 Model1A PARAMS:
+ R1=37
+ R2=0.1058
+ C= {Cpar}
+ K1=0.0004
+ K2=12
+ K3= {Ind}
+ K4=0.96
+ K5=0.00000999
+ L=0
+ Is=0
+ a=0
+ L_Z0=0
+ L_EL=0
+ L_F0=0E6
+ PkZ=34152.8551
.ends MSS1246T-393_freq

*======================================================================
* SPICE Model generated by Coilcraft
* Coilcraft Part Number : MSS1246T-393
* Inductance = 39uH
*======================================================================
* Model Parameters:
*   Valid Frequency Range = 0.1MHz-20MHz
*   Ambient Temperature = 25 degC
*   Inductor Impedance Model
*   Use model for Time Domain simulations
*======================================================================
.subckt MSS1246T-393_imp port1 port2 PARAMS: Cpar=4.33pF Ind=39uH
X1 port1 port2 Model1D PARAMS:
+ R1=37
+ R2=0.1058
+ C= {Cpar}
+ K1=0.0004
+ K2=12
+ K3= {Ind}
+ K4=0.96
+ K5=0.00000999
+ L=0
+ Is=0
+ a=0
+ L_Z0=0
+ L_EL=0
+ L_F0=0E6
+ PkZ=34152.8551
.ends MSS1246T-393_imp

*======================================================================
* SPICE Model generated by Coilcraft
* Coilcraft Part Number : MSS1246T-473
* Inductance = 47uH
*======================================================================
* Model Parameters:
*   Valid Frequency Range = 0.1MHz-20MHz
*   Ambient Temperature = 25 degC
*   Inductor Frequency Model
*   Use model for Frequency Domain simulations
*======================================================================
.subckt MSS1246T-473_freq port1 port2 PARAMS: Cpar=5.78pF Ind=47uH
X1 port1 port2 Model1A PARAMS:
+ R1=50
+ R2=0.134
+ C= {Cpar}
+ K1=0.0005
+ K2=15
+ K3= {Ind}
+ K4=1.2
+ K5=0.00001
+ L=0
+ Is=0
+ a=0
+ L_Z0=0
+ L_EL=0
+ L_F0=0E6
+ PkZ=35723.6762
.ends MSS1246T-473_freq

*======================================================================
* SPICE Model generated by Coilcraft
* Coilcraft Part Number : MSS1246T-473
* Inductance = 47uH
*======================================================================
* Model Parameters:
*   Valid Frequency Range = 0.1MHz-20MHz
*   Ambient Temperature = 25 degC
*   Inductor Impedance Model
*   Use model for Time Domain simulations
*======================================================================
.subckt MSS1246T-473_imp port1 port2 PARAMS: Cpar=5.11pF Ind=47uH
X1 port1 port2 Model1D PARAMS:
+ R1=50
+ R2=0.134
+ C= {Cpar}
+ K1=0.0005
+ K2=15
+ K3= {Ind}
+ K4=1.2
+ K5=0.00001
+ L=0
+ Is=0
+ a=0
+ L_Z0=0
+ L_EL=0
+ L_F0=0E6
+ PkZ=35723.6762
.ends MSS1246T-473_imp

*======================================================================
* SPICE Model generated by Coilcraft
* Coilcraft Part Number : MSS1246T-563
* Inductance = 56uH
*======================================================================
* Model Parameters:
*   Valid Frequency Range = 0.1MHz-20MHz
*   Ambient Temperature = 25 degC
*   Inductor Frequency Model
*   Use model for Frequency Domain simulations
*======================================================================
.subckt MSS1246T-563_freq port1 port2 PARAMS: Cpar=5.23pF Ind=56uH
X1 port1 port2 Model1A PARAMS:
+ R1=40
+ R2=0.1487
+ C= {Cpar}
+ K1=0.0007
+ K2=18
+ K3= {Ind}
+ K4=1.5
+ K5=0.00001
+ L=0
+ Is=0
+ a=0
+ L_Z0=0
+ L_EL=0
+ L_F0=0E6
+ PkZ=45177.3353
.ends MSS1246T-563_freq

*======================================================================
* SPICE Model generated by Coilcraft
* Coilcraft Part Number : MSS1246T-563
* Inductance = 56uH
*======================================================================
* Model Parameters:
*   Valid Frequency Range = 0.1MHz-20MHz
*   Ambient Temperature = 25 degC
*   Inductor Impedance Model
*   Use model for Time Domain simulations
*======================================================================
.subckt MSS1246T-563_imp port1 port2 PARAMS: Cpar=4.60pF Ind=56uH
X1 port1 port2 Model1D PARAMS:
+ R1=40
+ R2=0.1487
+ C= {Cpar}
+ K1=0.0007
+ K2=18
+ K3= {Ind}
+ K4=1.5
+ K5=0.00001
+ L=0
+ Is=0
+ a=0
+ L_Z0=0
+ L_EL=0
+ L_F0=0E6
+ PkZ=45177.3353
.ends MSS1246T-563_imp

*======================================================================
* SPICE Model generated by Coilcraft
* Coilcraft Part Number : MSS1246T-683
* Inductance = 68uH
*======================================================================
* Model Parameters:
*   Valid Frequency Range = 0.1MHz-10MHz
*   Ambient Temperature = 25 degC
*   Inductor Frequency Model
*   Use model for Frequency Domain simulations
*======================================================================
.subckt MSS1246T-683_freq port1 port2 PARAMS: Cpar=5.68pF Ind=68uH
X1 port1 port2 Model1A PARAMS:
+ R1=55
+ R2=0.1859
+ C= {Cpar}
+ K1=0.0012
+ K2=22
+ K3= {Ind}
+ K4=1.7
+ K5=0.00001
+ L=0
+ Is=0
+ a=0
+ L_Z0=0
+ L_EL=0
+ L_F0=0E6
+ PkZ=47588.2758
.ends MSS1246T-683_freq

*======================================================================
* SPICE Model generated by Coilcraft
* Coilcraft Part Number : MSS1246T-683
* Inductance = 68uH
*======================================================================
* Model Parameters:
*   Valid Frequency Range = 0.1MHz-10MHz
*   Ambient Temperature = 25 degC
*   Inductor Impedance Model
*   Use model for Time Domain simulations
*======================================================================
.subckt MSS1246T-683_imp port1 port2 PARAMS: Cpar=5.06pF Ind=68uH
X1 port1 port2 Model1D PARAMS:
+ R1=55
+ R2=0.1859
+ C= {Cpar}
+ K1=0.0012
+ K2=22
+ K3= {Ind}
+ K4=1.7
+ K5=0.00001
+ L=0
+ Is=0
+ a=0
+ L_Z0=0
+ L_EL=0
+ L_F0=0E6
+ PkZ=47588.2758
.ends MSS1246T-683_imp
