*======================================================================
* SPICE Model generated by Coilcraft
* Coilcraft Part Number : MSS1260T-102
* Inductance = 1uH
*======================================================================
* Model Parameters:
*   Valid Frequency Range = 0.1MHz-300MHz
*   Ambient Temperature = 25 degC
*   Inductor Frequency Model
*   Use model for Frequency Domain simulations
*======================================================================
.subckt MSS1260T-102_freq port1 port2 PARAMS: Cpar=3.8pF Ind=1uH
X1 port1 port2 Model1A PARAMS:
+ R1=8.7
+ R2=0.0058
+ C= {Cpar}
+ K1=0.000018
+ K2=0.23
+ K3= {Ind}
+ K4=0.015
+ K5=0.0000099
+ L=0
+ Is=0
+ a=0
+ L_Z0=0
+ L_EL=0
+ L_F0=0E6
+ PkZ=1976.02464
.ends MSS1260T-102_freq

*======================================================================
* SPICE Model generated by Coilcraft
* Coilcraft Part Number : MSS1260T-102
* Inductance = 1uH
*======================================================================
* Model Parameters:
*   Valid Frequency Range = 0.1MHz-300MHz
*   Ambient Temperature = 25 degC
*   Inductor Impedance Model
*   Use model for Time Domain simulations
*======================================================================
.subckt MSS1260T-102_imp port1 port2 PARAMS: Cpar=3.42pF Ind=1uH
X1 port1 port2 Model1D PARAMS:
+ R1=8.7
+ R2=0.0058
+ C= {Cpar}
+ K1=0.000018
+ K2=0.23
+ K3= {Ind}
+ K4=0.015
+ K5=0.0000099
+ L=0
+ Is=0
+ a=0
+ L_Z0=0
+ L_EL=0
+ L_F0=0E6
+ PkZ=1976.02464
.ends MSS1260T-102_imp

*======================================================================
* SPICE Model generated by Coilcraft
* Coilcraft Part Number : MSS1260T-152
* Inductance = 1.5uH
*======================================================================
* Model Parameters:
*   Valid Frequency Range = 0.1MHz-200MHz
*   Ambient Temperature = 25 degC
*   Inductor Frequency Model
*   Use model for Frequency Domain simulations
*======================================================================
.subckt MSS1260T-152_freq port1 port2 PARAMS: Cpar=2.8pF Ind=1.5uH
X1 port1 port2 Model1A PARAMS:
+ R1=12
+ R2=0.0088
+ C= {Cpar}
+ K1=0.00007
+ K2=0.41
+ K3= {Ind}
+ K4=0.0085
+ K5=0.0000097
+ L=0
+ Is=0
+ a=0
+ L_Z0=0
+ L_EL=0
+ L_F0=0E6
+ PkZ=3348.85091
.ends MSS1260T-152_freq

*======================================================================
* SPICE Model generated by Coilcraft
* Coilcraft Part Number : MSS1260T-152
* Inductance = 1.5uH
*======================================================================
* Model Parameters:
*   Valid Frequency Range = 0.1MHz-200MHz
*   Ambient Temperature = 25 degC
*   Inductor Impedance Model
*   Use model for Time Domain simulations
*======================================================================
.subckt MSS1260T-152_imp port1 port2 PARAMS: Cpar=2.69pF Ind=1.5uH
X1 port1 port2 Model1D PARAMS:
+ R1=12
+ R2=0.0088
+ C= {Cpar}
+ K1=0.00007
+ K2=0.41
+ K3= {Ind}
+ K4=0.0085
+ K5=0.0000097
+ L=0
+ Is=0
+ a=0
+ L_Z0=0
+ L_EL=0
+ L_F0=0E6
+ PkZ=3348.85091
.ends MSS1260T-152_imp

*======================================================================
* SPICE Model generated by Coilcraft
* Coilcraft Part Number : MSS1260T-222
* Inductance = 2.2uH
*======================================================================
* Model Parameters:
*   Valid Frequency Range = 0.1MHz-200MHz
*   Ambient Temperature = 25 degC
*   Inductor Frequency Model
*   Use model for Frequency Domain simulations
*======================================================================
.subckt MSS1260T-222_freq port1 port2 PARAMS: Cpar=1.6pF Ind=2.2uH
X1 port1 port2 Model1A PARAMS:
+ R1=7.2
+ R2=0.0115
+ C= {Cpar}
+ K1=0.00017
+ K2=0.38
+ K3= {Ind}
+ K4=0.007
+ K5=0.000007
+ L=0
+ Is=0
+ a=0
+ L_Z0=0
+ L_EL=0
+ L_F0=0E6
+ PkZ=3439.13972
.ends MSS1260T-222_freq

*======================================================================
* SPICE Model generated by Coilcraft
* Coilcraft Part Number : MSS1260T-222
* Inductance = 2.2uH
*======================================================================
* Model Parameters:
*   Valid Frequency Range = 0.1MHz-200MHz
*   Ambient Temperature = 25 degC
*   Inductor Impedance Model
*   Use model for Time Domain simulations
*======================================================================
.subckt MSS1260T-222_imp port1 port2 PARAMS: Cpar=1.57pF Ind=2.2uH
X1 port1 port2 Model1D PARAMS:
+ R1=7.2
+ R2=0.0115
+ C= {Cpar}
+ K1=0.00017
+ K2=0.38
+ K3= {Ind}
+ K4=0.007
+ K5=0.000007
+ L=0
+ Is=0
+ a=0
+ L_Z0=0
+ L_EL=0
+ L_F0=0E6
+ PkZ=3439.13972
.ends MSS1260T-222_imp

*======================================================================
* SPICE Model generated by Coilcraft
* Coilcraft Part Number : MSS1260T-332
* Inductance = 3.3uH
*======================================================================
* Model Parameters:
*   Valid Frequency Range = 0.1MHz-100MHz
*   Ambient Temperature = 25 degC
*   Inductor Frequency Model
*   Use model for Frequency Domain simulations
*======================================================================
.subckt MSS1260T-332_freq port1 port2 PARAMS: Cpar=5.6pF Ind=3.3uH
X1 port1 port2 Model1A PARAMS:
+ R1=5.4
+ R2=0.0126
+ C= {Cpar}
+ K1=0.00013
+ K2=0.79
+ K3= {Ind}
+ K4=0.1
+ K5=0.0000099
+ L=0
+ Is=0
+ a=0
+ L_Z0=0
+ L_EL=0
+ L_F0=0E6
+ PkZ=4739.59072
.ends MSS1260T-332_freq

*======================================================================
* SPICE Model generated by Coilcraft
* Coilcraft Part Number : MSS1260T-332
* Inductance = 3.3uH
*======================================================================
* Model Parameters:
*   Valid Frequency Range = 0.1MHz-100MHz
*   Ambient Temperature = 25 degC
*   Inductor Impedance Model
*   Use model for Time Domain simulations
*======================================================================
.subckt MSS1260T-332_imp port1 port2 PARAMS: Cpar=4.60pF Ind=3.3uH
X1 port1 port2 Model1D PARAMS:
+ R1=5.4
+ R2=0.0126
+ C= {Cpar}
+ K1=0.00013
+ K2=0.79
+ K3= {Ind}
+ K4=0.1
+ K5=0.0000099
+ L=0
+ Is=0
+ a=0
+ L_Z0=0
+ L_EL=0
+ L_F0=0E6
+ PkZ=4739.59072
.ends MSS1260T-332_imp

*======================================================================
* SPICE Model generated by Coilcraft
* Coilcraft Part Number : MSS1260T-472
* Inductance = 4.7uH
*======================================================================
* Model Parameters:
*   Valid Frequency Range = 0.1MHz-200MHz
*   Ambient Temperature = 25 degC
*   Inductor Frequency Model
*   Use model for Frequency Domain simulations
*======================================================================
.subckt MSS1260T-472_freq port1 port2 PARAMS: Cpar=3.4pF Ind=4.7uH
X1 port1 port2 Model1A PARAMS:
+ R1=4.9
+ R2=0.0139
+ C= {Cpar}
+ K1=0.000175
+ K2=1.2
+ K3= {Ind}
+ K4=0.16
+ K5=0.0000099
+ L=0
+ Is=0
+ a=0
+ L_Z0=0
+ L_EL=0
+ L_F0=0E6
+ PkZ=7670.25012
.ends MSS1260T-472_freq

*======================================================================
* SPICE Model generated by Coilcraft
* Coilcraft Part Number : MSS1260T-472
* Inductance = 4.7uH
*======================================================================
* Model Parameters:
*   Valid Frequency Range = 0.1MHz-200MHz
*   Ambient Temperature = 25 degC
*   Inductor Impedance Model
*   Use model for Time Domain simulations
*======================================================================
.subckt MSS1260T-472_imp port1 port2 PARAMS: Cpar=2.71pF Ind=4.7uH
X1 port1 port2 Model1D PARAMS:
+ R1=4.9
+ R2=0.0139
+ C= {Cpar}
+ K1=0.000175
+ K2=1.2
+ K3= {Ind}
+ K4=0.16
+ K5=0.0000099
+ L=0
+ Is=0
+ a=0
+ L_Z0=0
+ L_EL=0
+ L_F0=0E6
+ PkZ=7670.25012
.ends MSS1260T-472_imp

*======================================================================
* SPICE Model generated by Coilcraft
* Coilcraft Part Number : MSS1260T-562
* Inductance = 5.6uH
*======================================================================
* Model Parameters:
*   Valid Frequency Range = 0.1MHz-200MHz
*   Ambient Temperature = 25 degC
*   Inductor Frequency Model
*   Use model for Frequency Domain simulations
*======================================================================
.subckt MSS1260T-562_freq port1 port2 PARAMS: Cpar=4.3pF Ind=5.6uH
X1 port1 port2 Model1A PARAMS:
+ R1=4.6
+ R2=0.0149
+ C= {Cpar}
+ K1=0.000275
+ K2=1.6
+ K3= {Ind}
+ K4=0.12
+ K5=0.0000098
+ L=0
+ Is=0
+ a=0
+ L_Z0=0
+ L_EL=0
+ L_F0=0E6
+ PkZ=8956.51236
.ends MSS1260T-562_freq

*======================================================================
* SPICE Model generated by Coilcraft
* Coilcraft Part Number : MSS1260T-562
* Inductance = 5.6uH
*======================================================================
* Model Parameters:
*   Valid Frequency Range = 0.1MHz-200MHz
*   Ambient Temperature = 25 degC
*   Inductor Impedance Model
*   Use model for Time Domain simulations
*======================================================================
.subckt MSS1260T-562_imp port1 port2 PARAMS: Cpar=3.77pF Ind=5.6uH
X1 port1 port2 Model1D PARAMS:
+ R1=4.6
+ R2=0.0149
+ C= {Cpar}
+ K1=0.000275
+ K2=1.6
+ K3= {Ind}
+ K4=0.12
+ K5=0.0000098
+ L=0
+ Is=0
+ a=0
+ L_Z0=0
+ L_EL=0
+ L_F0=0E6
+ PkZ=8956.51236
.ends MSS1260T-562_imp

*======================================================================
* SPICE Model generated by Coilcraft
* Coilcraft Part Number : MSS1260T-682
* Inductance = 6.8uH
*======================================================================
* Model Parameters:
*   Valid Frequency Range = 0.1MHz-200MHz
*   Ambient Temperature = 25 degC
*   Inductor Frequency Model
*   Use model for Frequency Domain simulations
*======================================================================
.subckt MSS1260T-682_freq port1 port2 PARAMS: Cpar=3.8pF Ind=6.8uH
X1 port1 port2 Model1A PARAMS:
+ R1=5.4
+ R2=0.0166
+ C= {Cpar}
+ K1=0.000275
+ K2=1.4
+ K3= {Ind}
+ K4=0.12
+ K5=0.00000975
+ L=0
+ Is=0
+ a=0
+ L_Z0=0
+ L_EL=0
+ L_F0=0E6
+ PkZ=7773.29181
.ends MSS1260T-682_freq

*======================================================================
* SPICE Model generated by Coilcraft
* Coilcraft Part Number : MSS1260T-682
* Inductance = 6.8uH
*======================================================================
* Model Parameters:
*   Valid Frequency Range = 0.1MHz-200MHz
*   Ambient Temperature = 25 degC
*   Inductor Impedance Model
*   Use model for Time Domain simulations
*======================================================================
.subckt MSS1260T-682_imp port1 port2 PARAMS: Cpar=3.42pF Ind=6.8uH
X1 port1 port2 Model1D PARAMS:
+ R1=5.4
+ R2=0.0166
+ C= {Cpar}
+ K1=0.000275
+ K2=1.4
+ K3= {Ind}
+ K4=0.12
+ K5=0.00000975
+ L=0
+ Is=0
+ a=0
+ L_Z0=0
+ L_EL=0
+ L_F0=0E6
+ PkZ=7773.29181
.ends MSS1260T-682_imp

*======================================================================
* SPICE Model generated by Coilcraft
* Coilcraft Part Number : MSS1260T-822
* Inductance = 8.2uH
*======================================================================
* Model Parameters:
*   Valid Frequency Range = 0.1MHz-200MHz
*   Ambient Temperature = 25 degC
*   Inductor Frequency Model
*   Use model for Frequency Domain simulations
*======================================================================
.subckt MSS1260T-822_freq port1 port2 PARAMS: Cpar=5.1pF Ind=8.2uH
X1 port1 port2 Model1A PARAMS:
+ R1=4.9
+ R2=0.017
+ C= {Cpar}
+ K1=0.00025
+ K2=1.8
+ K3= {Ind}
+ K4=0.2
+ K5=0.00000987
+ L=0
+ Is=0
+ a=0
+ L_Z0=0
+ L_EL=0
+ L_F0=0E6
+ PkZ=8889.69825
.ends MSS1260T-822_freq

*======================================================================
* SPICE Model generated by Coilcraft
* Coilcraft Part Number : MSS1260T-822
* Inductance = 8.2uH
*======================================================================
* Model Parameters:
*   Valid Frequency Range = 0.1MHz-200MHz
*   Ambient Temperature = 25 degC
*   Inductor Impedance Model
*   Use model for Time Domain simulations
*======================================================================
.subckt MSS1260T-822_imp port1 port2 PARAMS: Cpar=4.42pF Ind=8.2uH
X1 port1 port2 Model1D PARAMS:
+ R1=4.9
+ R2=0.017
+ C= {Cpar}
+ K1=0.00025
+ K2=1.8
+ K3= {Ind}
+ K4=0.2
+ K5=0.00000987
+ L=0
+ Is=0
+ a=0
+ L_Z0=0
+ L_EL=0
+ L_F0=0E6
+ PkZ=8889.69825
.ends MSS1260T-822_imp

*======================================================================
* SPICE Model generated by Coilcraft
* Coilcraft Part Number : MSS1260T-103
* Inductance = 10uH
*======================================================================
* Model Parameters:
*   Valid Frequency Range = 0.1MHz-200MHz
*   Ambient Temperature = 25 degC
*   Inductor Frequency Model
*   Use model for Frequency Domain simulations
*======================================================================
.subckt MSS1260T-103_freq port1 port2 PARAMS: Cpar=5.8pF Ind=10uH
X1 port1 port2 Model1A PARAMS:
+ R1=3.8
+ R2=0.0215
+ C= {Cpar}
+ K1=0.000425
+ K2=3
+ K3= {Ind}
+ K4=0.15
+ K5=0.0000098
+ L=0
+ Is=0
+ a=0
+ L_Z0=0
+ L_EL=0
+ L_F0=0E6
+ PkZ=13321.8556
.ends MSS1260T-103_freq

*======================================================================
* SPICE Model generated by Coilcraft
* Coilcraft Part Number : MSS1260T-103
* Inductance = 10uH
*======================================================================
* Model Parameters:
*   Valid Frequency Range = 0.1MHz-200MHz
*   Ambient Temperature = 25 degC
*   Inductor Impedance Model
*   Use model for Time Domain simulations
*======================================================================
.subckt MSS1260T-103_imp port1 port2 PARAMS: Cpar=5.34pF Ind=10uH
X1 port1 port2 Model1D PARAMS:
+ R1=3.8
+ R2=0.0215
+ C= {Cpar}
+ K1=0.000425
+ K2=3
+ K3= {Ind}
+ K4=0.15
+ K5=0.0000098
+ L=0
+ Is=0
+ a=0
+ L_Z0=0
+ L_EL=0
+ L_F0=0E6
+ PkZ=13321.8556
.ends MSS1260T-103_imp

*======================================================================
* SPICE Model generated by Coilcraft
* Coilcraft Part Number : MSS1260T-123
* Inductance = 12uH
*======================================================================
* Model Parameters:
*   Valid Frequency Range = 0.1MHz-100MHz
*   Ambient Temperature = 25 degC
*   Inductor Frequency Model
*   Use model for Frequency Domain simulations
*======================================================================
.subckt MSS1260T-123_freq port1 port2 PARAMS: Cpar=4.7pF Ind=12uH
X1 port1 port2 Model1A PARAMS:
+ R1=4.2
+ R2=0.0245
+ C= {Cpar}
+ K1=0.00056
+ K2=3.3
+ K3= {Ind}
+ K4=0.29
+ K5=0.00000985
+ L=0
+ Is=0
+ a=0
+ L_Z0=0
+ L_EL=0
+ L_F0=0E6
+ PkZ=14993.3629
.ends MSS1260T-123_freq

*======================================================================
* SPICE Model generated by Coilcraft
* Coilcraft Part Number : MSS1260T-123
* Inductance = 12uH
*======================================================================
* Model Parameters:
*   Valid Frequency Range = 0.1MHz-100MHz
*   Ambient Temperature = 25 degC
*   Inductor Impedance Model
*   Use model for Time Domain simulations
*======================================================================
.subckt MSS1260T-123_imp port1 port2 PARAMS: Cpar=4.09pF Ind=12uH
X1 port1 port2 Model1D PARAMS:
+ R1=4.2
+ R2=0.0245
+ C= {Cpar}
+ K1=0.00056
+ K2=3.3
+ K3= {Ind}
+ K4=0.29
+ K5=0.00000985
+ L=0
+ Is=0
+ a=0
+ L_Z0=0
+ L_EL=0
+ L_F0=0E6
+ PkZ=14993.3629
.ends MSS1260T-123_imp

*======================================================================
* SPICE Model generated by Coilcraft
* Coilcraft Part Number : MSS1260T-153
* Inductance = 15uH
*======================================================================
* Model Parameters:
*   Valid Frequency Range = 0.1MHz-100MHz
*   Ambient Temperature = 25 degC
*   Inductor Frequency Model
*   Use model for Frequency Domain simulations
*======================================================================
.subckt MSS1260T-153_freq port1 port2 PARAMS: Cpar=5.7pF Ind=15uH
X1 port1 port2 Model1A PARAMS:
+ R1=4.6
+ R2=0.027
+ C= {Cpar}
+ K1=0.00046
+ K2=4
+ K3= {Ind}
+ K4=0.041
+ K5=0.0000091
+ L=0
+ Is=0
+ a=0
+ L_Z0=0
+ L_EL=0
+ L_F0=0E6
+ PkZ=15984.6381
.ends MSS1260T-153_freq

*======================================================================
* SPICE Model generated by Coilcraft
* Coilcraft Part Number : MSS1260T-153
* Inductance = 15uH
*======================================================================
* Model Parameters:
*   Valid Frequency Range = 0.1MHz-100MHz
*   Ambient Temperature = 25 degC
*   Inductor Impedance Model
*   Use model for Time Domain simulations
*======================================================================
.subckt MSS1260T-153_imp port1 port2 PARAMS: Cpar=5.62pF Ind=15uH
X1 port1 port2 Model1D PARAMS:
+ R1=4.6
+ R2=0.027
+ C= {Cpar}
+ K1=0.00046
+ K2=4
+ K3= {Ind}
+ K4=0.041
+ K5=0.0000091
+ L=0
+ Is=0
+ a=0
+ L_Z0=0
+ L_EL=0
+ L_F0=0E6
+ PkZ=15984.6381
.ends MSS1260T-153_imp

*======================================================================
* SPICE Model generated by Coilcraft
* Coilcraft Part Number : MSS1260T-183
* Inductance = 18uH
*======================================================================
* Model Parameters:
*   Valid Frequency Range = 0.1MHz-100MHz
*   Ambient Temperature = 25 degC
*   Inductor Frequency Model
*   Use model for Frequency Domain simulations
*======================================================================
.subckt MSS1260T-183_freq port1 port2 PARAMS: Cpar=6.5pF Ind=18uH
X1 port1 port2 Model1A PARAMS:
+ R1=4.4
+ R2=0.03
+ C= {Cpar}
+ K1=0.00075
+ K2=4.7
+ K3= {Ind}
+ K4=0.33
+ K5=0.00000982
+ L=0
+ Is=0
+ a=0
+ L_Z0=0
+ L_EL=0
+ L_F0=0E6
+ PkZ=17518.6718
.ends MSS1260T-183_freq

*======================================================================
* SPICE Model generated by Coilcraft
* Coilcraft Part Number : MSS1260T-183
* Inductance = 18uH
*======================================================================
* Model Parameters:
*   Valid Frequency Range = 0.1MHz-100MHz
*   Ambient Temperature = 25 degC
*   Inductor Impedance Model
*   Use model for Time Domain simulations
*======================================================================
.subckt MSS1260T-183_imp port1 port2 PARAMS: Cpar=5.91pF Ind=18uH
X1 port1 port2 Model1D PARAMS:
+ R1=4.4
+ R2=0.03
+ C= {Cpar}
+ K1=0.00075
+ K2=4.7
+ K3= {Ind}
+ K4=0.33
+ K5=0.00000982
+ L=0
+ Is=0
+ a=0
+ L_Z0=0
+ L_EL=0
+ L_F0=0E6
+ PkZ=17518.6718
.ends MSS1260T-183_imp

*======================================================================
* SPICE Model generated by Coilcraft
* Coilcraft Part Number : MSS1260T-223
* Inductance = 22uH
*======================================================================
* Model Parameters:
*   Valid Frequency Range = 0.1MHz-100MHz
*   Ambient Temperature = 25 degC
*   Inductor Frequency Model
*   Use model for Frequency Domain simulations
*======================================================================
.subckt MSS1260T-223_freq port1 port2 PARAMS: Cpar=6.3pF Ind=22uH
X1 port1 port2 Model1A PARAMS:
+ R1=5.4
+ R2=0.0366
+ C= {Cpar}
+ K1=0.000925
+ K2=6
+ K3= {Ind}
+ K4=0.43
+ K5=0.00000985
+ L=0
+ Is=0
+ a=0
+ L_Z0=0
+ L_EL=0
+ L_F0=0E6
+ PkZ=21265.2064
.ends MSS1260T-223_freq

*======================================================================
* SPICE Model generated by Coilcraft
* Coilcraft Part Number : MSS1260T-223
* Inductance = 22uH
*======================================================================
* Model Parameters:
*   Valid Frequency Range = 0.1MHz-100MHz
*   Ambient Temperature = 25 degC
*   Inductor Impedance Model
*   Use model for Time Domain simulations
*======================================================================
.subckt MSS1260T-223_imp port1 port2 PARAMS: Cpar=5.70pF Ind=22uH
X1 port1 port2 Model1D PARAMS:
+ R1=5.4
+ R2=0.0366
+ C= {Cpar}
+ K1=0.000925
+ K2=6
+ K3= {Ind}
+ K4=0.43
+ K5=0.00000985
+ L=0
+ Is=0
+ a=0
+ L_Z0=0
+ L_EL=0
+ L_F0=0E6
+ PkZ=21265.2064
.ends MSS1260T-223_imp

*======================================================================
* SPICE Model generated by Coilcraft
* Coilcraft Part Number : MSS1260T-273
* Inductance = 27uH
*======================================================================
* Model Parameters:
*   Valid Frequency Range = 0.1MHz-100MHz
*   Ambient Temperature = 25 degC
*   Inductor Frequency Model
*   Use model for Frequency Domain simulations
*======================================================================
.subckt MSS1260T-273_freq port1 port2 PARAMS: Cpar=6.3pF Ind=27uH
X1 port1 port2 Model1A PARAMS:
+ R1=13
+ R2=0.048
+ C= {Cpar}
+ K1=0.00097
+ K2=6.8
+ K3= {Ind}
+ K4=0.69
+ K5=0.00000989
+ L=0
+ Is=0
+ a=0
+ L_Z0=0
+ L_EL=0
+ L_F0=0E6
+ PkZ=22149.9932
.ends MSS1260T-273_freq

*======================================================================
* SPICE Model generated by Coilcraft
* Coilcraft Part Number : MSS1260T-273
* Inductance = 27uH
*======================================================================
* Model Parameters:
*   Valid Frequency Range = 0.1MHz-100MHz
*   Ambient Temperature = 25 degC
*   Inductor Impedance Model
*   Use model for Time Domain simulations
*======================================================================
.subckt MSS1260T-273_imp port1 port2 PARAMS: Cpar=5.53pF Ind=27uH
X1 port1 port2 Model1D PARAMS:
+ R1=13
+ R2=0.048
+ C= {Cpar}
+ K1=0.00097
+ K2=6.8
+ K3= {Ind}
+ K4=0.69
+ K5=0.00000989
+ L=0
+ Is=0
+ a=0
+ L_Z0=0
+ L_EL=0
+ L_F0=0E6
+ PkZ=22149.9932
.ends MSS1260T-273_imp

*======================================================================
* SPICE Model generated by Coilcraft
* Coilcraft Part Number : MSS1260T-333
* Inductance = 33uH
*======================================================================
* Model Parameters:
*   Valid Frequency Range = 0.1MHz-100MHz
*   Ambient Temperature = 25 degC
*   Inductor Frequency Model
*   Use model for Frequency Domain simulations
*======================================================================
.subckt MSS1260T-333_freq port1 port2 PARAMS: Cpar=8pF Ind=33uH
X1 port1 port2 Model1A PARAMS:
+ R1=11
+ R2=0.054
+ C= {Cpar}
+ K1=0.0014
+ K2=8.6
+ K3= {Ind}
+ K4=0.88
+ K5=0.0000099
+ L=0
+ Is=0
+ a=0
+ L_Z0=0
+ L_EL=0
+ L_F0=0E6
+ PkZ=24832.6855
.ends MSS1260T-333_freq

*======================================================================
* SPICE Model generated by Coilcraft
* Coilcraft Part Number : MSS1260T-333
* Inductance = 33uH
*======================================================================
* Model Parameters:
*   Valid Frequency Range = 0.1MHz-100MHz
*   Ambient Temperature = 25 degC
*   Inductor Impedance Model
*   Use model for Time Domain simulations
*======================================================================
.subckt MSS1260T-333_imp port1 port2 PARAMS: Cpar=7.02pF Ind=33uH
X1 port1 port2 Model1D PARAMS:
+ R1=11
+ R2=0.054
+ C= {Cpar}
+ K1=0.0014
+ K2=8.6
+ K3= {Ind}
+ K4=0.88
+ K5=0.0000099
+ L=0
+ Is=0
+ a=0
+ L_Z0=0
+ L_EL=0
+ L_F0=0E6
+ PkZ=24832.6855
.ends MSS1260T-333_imp

*======================================================================
* SPICE Model generated by Coilcraft
* Coilcraft Part Number : MSS1260T-393
* Inductance = 39uH
*======================================================================
* Model Parameters:
*   Valid Frequency Range = 0.1MHz-100MHz
*   Ambient Temperature = 25 degC
*   Inductor Frequency Model
*   Use model for Frequency Domain simulations
*======================================================================
.subckt MSS1260T-393_freq port1 port2 PARAMS: Cpar=5.4pF Ind=39uH
X1 port1 port2 Model1A PARAMS:
+ R1=7.5
+ R2=0.058
+ C= {Cpar}
+ K1=0.002
+ K2=9.7
+ K3= {Ind}
+ K4=1.1
+ K5=0.00000986
+ L=0
+ Is=0
+ a=0
+ L_Z0=0
+ L_EL=0
+ L_F0=0E6
+ PkZ=30905.8214
.ends MSS1260T-393_freq

*======================================================================
* SPICE Model generated by Coilcraft
* Coilcraft Part Number : MSS1260T-393
* Inductance = 39uH
*======================================================================
* Model Parameters:
*   Valid Frequency Range = 0.1MHz-100MHz
*   Ambient Temperature = 25 degC
*   Inductor Impedance Model
*   Use model for Time Domain simulations
*======================================================================
.subckt MSS1260T-393_imp port1 port2 PARAMS: Cpar=4.69pF Ind=39uH
X1 port1 port2 Model1D PARAMS:
+ R1=7.5
+ R2=0.058
+ C= {Cpar}
+ K1=0.002
+ K2=9.7
+ K3= {Ind}
+ K4=1.1
+ K5=0.00000986
+ L=0
+ Is=0
+ a=0
+ L_Z0=0
+ L_EL=0
+ L_F0=0E6
+ PkZ=30905.8214
.ends MSS1260T-393_imp

*======================================================================
* SPICE Model generated by Coilcraft
* Coilcraft Part Number : MSS1260T-473
* Inductance = 47uH
*======================================================================
* Model Parameters:
*   Valid Frequency Range = 0.1MHz-100MHz
*   Ambient Temperature = 25 degC
*   Inductor Frequency Model
*   Use model for Frequency Domain simulations
*======================================================================
.subckt MSS1260T-473_freq port1 port2 PARAMS: Cpar=8.8pF Ind=47uH
X1 port1 port2 Model1A PARAMS:
+ R1=11
+ R2=0.075
+ C= {Cpar}
+ K1=0.002
+ K2=14
+ K3= {Ind}
+ K4=1
+ K5=0.00000992
+ L=0
+ Is=0
+ a=0
+ L_Z0=0
+ L_EL=0
+ L_F0=0E6
+ PkZ=35235.369
.ends MSS1260T-473_freq

*======================================================================
* SPICE Model generated by Coilcraft
* Coilcraft Part Number : MSS1260T-473
* Inductance = 47uH
*======================================================================
* Model Parameters:
*   Valid Frequency Range = 0.1MHz-100MHz
*   Ambient Temperature = 25 degC
*   Inductor Impedance Model
*   Use model for Time Domain simulations
*======================================================================
.subckt MSS1260T-473_imp port1 port2 PARAMS: Cpar=7.99pF Ind=47uH
X1 port1 port2 Model1D PARAMS:
+ R1=11
+ R2=0.075
+ C= {Cpar}
+ K1=0.002
+ K2=14
+ K3= {Ind}
+ K4=1
+ K5=0.00000992
+ L=0
+ Is=0
+ a=0
+ L_Z0=0
+ L_EL=0
+ L_F0=0E6
+ PkZ=35235.369
.ends MSS1260T-473_imp

*======================================================================
* SPICE Model generated by Coilcraft
* Coilcraft Part Number : MSS1260T-563
* Inductance = 56uH
*======================================================================
* Model Parameters:
*   Valid Frequency Range = 0.1MHz-100MHz
*   Ambient Temperature = 25 degC
*   Inductor Frequency Model
*   Use model for Frequency Domain simulations
*======================================================================
.subckt MSS1260T-563_freq port1 port2 PARAMS: Cpar=7.6pF Ind=56uH
X1 port1 port2 Model1A PARAMS:
+ R1=12
+ R2=0.085
+ C= {Cpar}
+ K1=0.003
+ K2=17
+ K3= {Ind}
+ K4=1.302
+ K5=0.0000099
+ L=0
+ Is=0
+ a=0
+ L_Z0=0
+ L_EL=0
+ L_F0=0E6
+ PkZ=42131.2719
.ends MSS1260T-563_freq

*======================================================================
* SPICE Model generated by Coilcraft
* Coilcraft Part Number : MSS1260T-563
* Inductance = 56uH
*======================================================================
* Model Parameters:
*   Valid Frequency Range = 0.1MHz-100MHz
*   Ambient Temperature = 25 degC
*   Inductor Impedance Model
*   Use model for Time Domain simulations
*======================================================================
.subckt MSS1260T-563_imp port1 port2 PARAMS: Cpar=6.83pF Ind=56uH
X1 port1 port2 Model1D PARAMS:
+ R1=12
+ R2=0.085
+ C= {Cpar}
+ K1=0.003
+ K2=17
+ K3= {Ind}
+ K4=1.302
+ K5=0.0000099
+ L=0
+ Is=0
+ a=0
+ L_Z0=0
+ L_EL=0
+ L_F0=0E6
+ PkZ=42131.2719
.ends MSS1260T-563_imp

*======================================================================
* SPICE Model generated by Coilcraft
* Coilcraft Part Number : MSS1260T-683
* Inductance = 68uH
*======================================================================
* Model Parameters:
*   Valid Frequency Range = 0.1MHz-100MHz
*   Ambient Temperature = 25 degC
*   Inductor Frequency Model
*   Use model for Frequency Domain simulations
*======================================================================
.subckt MSS1260T-683_freq port1 port2 PARAMS: Cpar=7.1pF Ind=68uH
X1 port1 port2 Model1A PARAMS:
+ R1=12
+ R2=0.0945
+ C= {Cpar}
+ K1=0.004
+ K2=24
+ K3= {Ind}
+ K4=2.1
+ K5=0.00000995
+ L=0
+ Is=0
+ a=0
+ L_Z0=0
+ L_EL=0
+ L_F0=0E6
+ PkZ=56316.2676
.ends MSS1260T-683_freq

*======================================================================
* SPICE Model generated by Coilcraft
* Coilcraft Part Number : MSS1260T-683
* Inductance = 68uH
*======================================================================
* Model Parameters:
*   Valid Frequency Range = 0.1MHz-100MHz
*   Ambient Temperature = 25 degC
*   Inductor Impedance Model
*   Use model for Time Domain simulations
*======================================================================
.subckt MSS1260T-683_imp port1 port2 PARAMS: Cpar=6.16pF Ind=68uH
X1 port1 port2 Model1D PARAMS:
+ R1=12
+ R2=0.0945
+ C= {Cpar}
+ K1=0.004
+ K2=24
+ K3= {Ind}
+ K4=2.1
+ K5=0.00000995
+ L=0
+ Is=0
+ a=0
+ L_Z0=0
+ L_EL=0
+ L_F0=0E6
+ PkZ=56316.2676