*======================================================================
* SPICE Model generated by Coilcraft
* Coilcraft Part Number : MSS4020-332
* Inductance = 3.3uH
*======================================================================
* Model Parameters:
*   Valid Frequency Range = 0.1MHz-100MHz
*   Ambient Temperature = 25 degC
*   Inductor Frequency Model
*   Use model for Frequency Domain simulations
*======================================================================
.subckt MSS4020-332_freq port1 port2 PARAMS: Cpar=0.84pF Ind=3.3uH
X1 port1 port2 Model1A PARAMS:
+ R1=55
+ R2=0.085
+ C= {Cpar}
+ K1=0.0000001
+ K2=0.544
+ K3= {Ind}
+ K4=0.08
+ K5=0.00000982
+ L=0
+ Is=0
+ a=0
+ L_Z0=0
+ L_EL=0
+ L_F0=0E6
+ PkZ=5090.28568
.ends MSS4020-332_freq

*======================================================================
* SPICE Model generated by Coilcraft
* Coilcraft Part Number : MSS4020-332
* Inductance = 3.3uH
*======================================================================
* Model Parameters:
*   Valid Frequency Range = 0.1MHz-100MHz
*   Ambient Temperature = 25 degC
*   Inductor Impedance Model
*   Use model for Time Domain simulations
*======================================================================
.subckt MSS4020-332_imp port1 port2 PARAMS: Cpar=0.70pF Ind=3.3uH
X1 port1 port2 Model1D PARAMS:
+ R1=55
+ R2=0.085
+ C= {Cpar}
+ K1=0.0000001
+ K2=0.544
+ K3= {Ind}
+ K4=0.08
+ K5=0.00000982
+ L=0
+ Is=0
+ a=0
+ L_Z0=0
+ L_EL=0
+ L_F0=0E6
+ PkZ=5090.28568
.ends MSS4020-332_imp

*======================================================================
* SPICE Model generated by Coilcraft
* Coilcraft Part Number : MSS4020-472
* Inductance = 4.7uH
*======================================================================
* Model Parameters:
*   Valid Frequency Range = 0.1MHz-100MHz
*   Ambient Temperature = 25 degC
*   Inductor Frequency Model
*   Use model for Frequency Domain simulations
*======================================================================
.subckt MSS4020-472_freq port1 port2 PARAMS: Cpar=0.874pF Ind=4.7uH
X1 port1 port2 Model1A PARAMS:
+ R1=50
+ R2=0.115
+ C= {Cpar}
+ K1=0.0000001
+ K2=0.964
+ K3= {Ind}
+ K4=0.144
+ K5=0.00000988
+ L=0
+ Is=0
+ a=0
+ L_Z0=0
+ L_EL=0
+ L_F0=0E6
+ PkZ=8178.58878
.ends MSS4020-472_freq

*======================================================================
* SPICE Model generated by Coilcraft
* Coilcraft Part Number : MSS4020-472
* Inductance = 4.7uH
*======================================================================
* Model Parameters:
*   Valid Frequency Range = 0.1MHz-100MHz
*   Ambient Temperature = 25 degC
*   Inductor Impedance Model
*   Use model for Time Domain simulations
*======================================================================
.subckt MSS4020-472_imp port1 port2 PARAMS: Cpar=0.70pF Ind=4.7uH
X1 port1 port2 Model1D PARAMS:
+ R1=50
+ R2=0.115
+ C= {Cpar}
+ K1=0.0000001
+ K2=0.964
+ K3= {Ind}
+ K4=0.144
+ K5=0.00000988
+ L=0
+ Is=0
+ a=0
+ L_Z0=0
+ L_EL=0
+ L_F0=0E6
+ PkZ=8178.58878
.ends MSS4020-472_imp

*======================================================================
* SPICE Model generated by Coilcraft
* Coilcraft Part Number : MSS4020-562
* Inductance = 5.6uH
*======================================================================
* Model Parameters:
*   Valid Frequency Range = 0.1MHz-100MHz
*   Ambient Temperature = 25 degC
*   Inductor Frequency Model
*   Use model for Frequency Domain simulations
*======================================================================
.subckt MSS4020-562_freq port1 port2 PARAMS: Cpar=0.852pF Ind=5.6uH
X1 port1 port2 Model1A PARAMS:
+ R1=35
+ R2=0.13
+ C= {Cpar}
+ K1=0.0000001
+ K2=1
+ K3= {Ind}
+ K4=0.192
+ K5=0.00000985
+ L=0
+ Is=0
+ a=0
+ L_Z0=0
+ L_EL=0
+ L_F0=0E6
+ PkZ=8561.36634
.ends MSS4020-562_freq

*======================================================================
* SPICE Model generated by Coilcraft
* Coilcraft Part Number : MSS4020-562
* Inductance = 5.6uH
*======================================================================
* Model Parameters:
*   Valid Frequency Range = 0.1MHz-100MHz
*   Ambient Temperature = 25 degC
*   Inductor Impedance Model
*   Use model for Time Domain simulations
*======================================================================
.subckt MSS4020-562_imp port1 port2 PARAMS: Cpar=0.66pF Ind=5.6uH
X1 port1 port2 Model1D PARAMS:
+ R1=35
+ R2=0.13
+ C= {Cpar}
+ K1=0.0000001
+ K2=1
+ K3= {Ind}
+ K4=0.192
+ K5=0.00000985
+ L=0
+ Is=0
+ a=0
+ L_Z0=0
+ L_EL=0
+ L_F0=0E6
+ PkZ=8561.36634
.ends MSS4020-562_imp

*======================================================================
* SPICE Model generated by Coilcraft
* Coilcraft Part Number : MSS4020-682
* Inductance = 6.8uH
*======================================================================
* Model Parameters:
*   Valid Frequency Range = 0.1MHz-100MHz
*   Ambient Temperature = 25 degC
*   Inductor Frequency Model
*   Use model for Frequency Domain simulations
*======================================================================
.subckt MSS4020-682_freq port1 port2 PARAMS: Cpar=0.955pF Ind=6.8uH
X1 port1 port2 Model1A PARAMS:
+ R1=35
+ R2=0.175
+ C= {Cpar}
+ K1=0.0000001
+ K2=1.27
+ K3= {Ind}
+ K4=0.232
+ K5=0.00000984
+ L=0
+ Is=0
+ a=0
+ L_Z0=0
+ L_EL=0
+ L_F0=0E6
+ PkZ=10001.6992
.ends MSS4020-682_freq

*======================================================================
* SPICE Model generated by Coilcraft
* Coilcraft Part Number : MSS4020-682
* Inductance = 6.8uH
*======================================================================
* Model Parameters:
*   Valid Frequency Range = 0.1MHz-100MHz
*   Ambient Temperature = 25 degC
*   Inductor Impedance Model
*   Use model for Time Domain simulations
*======================================================================
.subckt MSS4020-682_imp port1 port2 PARAMS: Cpar=0.75pF Ind=6.8uH
X1 port1 port2 Model1D PARAMS:
+ R1=35
+ R2=0.175
+ C= {Cpar}
+ K1=0.0000001
+ K2=1.27
+ K3= {Ind}
+ K4=0.232
+ K5=0.00000984
+ L=0
+ Is=0
+ a=0
+ L_Z0=0
+ L_EL=0
+ L_F0=0E6
+ PkZ=10001.6992
.ends MSS4020-682_imp

*======================================================================
* SPICE Model generated by Coilcraft
* Coilcraft Part Number : MSS4020-822
* Inductance = 8.2uH
*======================================================================
* Model Parameters:
*   Valid Frequency Range = 0.1MHz-100MHz
*   Ambient Temperature = 25 degC
*   Inductor Frequency Model
*   Use model for Frequency Domain simulations
*======================================================================
.subckt MSS4020-822_freq port1 port2 PARAMS: Cpar=0.807pF Ind=8.2uH
X1 port1 port2 Model1A PARAMS:
+ R1=33
+ R2=0.19
+ C= {Cpar}
+ K1=0.0000001
+ K2=1.45
+ K3= {Ind}
+ K4=0.281
+ K5=0.00000984
+ L=0
+ Is=0
+ a=0
+ L_Z0=0
+ L_EL=0
+ L_F0=0E6
+ PkZ=11548.8093
.ends MSS4020-822_freq

*======================================================================
* SPICE Model generated by Coilcraft
* Coilcraft Part Number : MSS4020-822
* Inductance = 8.2uH
*======================================================================
* Model Parameters:
*   Valid Frequency Range = 0.1MHz-100MHz
*   Ambient Temperature = 25 degC
*   Inductor Impedance Model
*   Use model for Time Domain simulations
*======================================================================
.subckt MSS4020-822_imp port1 port2 PARAMS: Cpar=0.63pF Ind=8.2uH
X1 port1 port2 Model1D PARAMS:
+ R1=33
+ R2=0.19
+ C= {Cpar}
+ K1=0.0000001
+ K2=1.45
+ K3= {Ind}
+ K4=0.281
+ K5=0.00000984
+ L=0
+ Is=0
+ a=0
+ L_Z0=0
+ L_EL=0
+ L_F0=0E6
+ PkZ=11548.8093
.ends MSS4020-822_imp

*======================================================================
* SPICE Model generated by Coilcraft
* Coilcraft Part Number : MSS4020-103
* Inductance = 10uH
*======================================================================
* Model Parameters:
*   Valid Frequency Range = 0.1MHz-100MHz
*   Ambient Temperature = 25 degC
*   Inductor Frequency Model
*   Use model for Frequency Domain simulations
*======================================================================
.subckt MSS4020-103_freq port1 port2 PARAMS: Cpar=0.938pF Ind=10uH
X1 port1 port2 Model1A PARAMS:
+ R1=37
+ R2=0.21
+ C= {Cpar}
+ K1=0.0000001
+ K2=1.9
+ K3= {Ind}
+ K4=0.411
+ K5=0.00000986
+ L=0
+ Is=0
+ a=0
+ L_Z0=0
+ L_EL=0
+ L_F0=0E6
+ PkZ=13788.226
.ends MSS4020-103_freq

*======================================================================
* SPICE Model generated by Coilcraft
* Coilcraft Part Number : MSS4020-103
* Inductance = 10uH
*======================================================================
* Model Parameters:
*   Valid Frequency Range = 0.1MHz-100MHz
*   Ambient Temperature = 25 degC
*   Inductor Impedance Model
*   Use model for Time Domain simulations
*======================================================================
.subckt MSS4020-103_imp port1 port2 PARAMS: Cpar=0.70pF Ind=10uH
X1 port1 port2 Model1D PARAMS:
+ R1=37
+ R2=0.21
+ C= {Cpar}
+ K1=0.0000001
+ K2=1.9
+ K3= {Ind}
+ K4=0.411
+ K5=0.00000986
+ L=0
+ Is=0
+ a=0
+ L_Z0=0
+ L_EL=0
+ L_F0=0E6
+ PkZ=13788.226
.ends MSS4020-103_imp

*======================================================================
* SPICE Model generated by Coilcraft
* Coilcraft Part Number : MSS4020-123
* Inductance = 12uH
*======================================================================
* Model Parameters:
*   Valid Frequency Range = 0.1MHz-100MHz
*   Ambient Temperature = 25 degC
*   Inductor Frequency Model
*   Use model for Frequency Domain simulations
*======================================================================
.subckt MSS4020-123_freq port1 port2 PARAMS: Cpar=0.86pF Ind=12uH
X1 port1 port2 Model1A PARAMS:
+ R1=43
+ R2=0.28
+ C= {Cpar}
+ K1=0.0000001
+ K2=1.9
+ K3= {Ind}
+ K4=0.497
+ K5=0.00000984
+ L=0
+ Is=0
+ a=0
+ L_Z0=0
+ L_EL=0
+ L_F0=0E6
+ PkZ=13581.9006
.ends MSS4020-123_freq

*======================================================================
* SPICE Model generated by Coilcraft
* Coilcraft Part Number : MSS4020-123
* Inductance = 12uH
*======================================================================
* Model Parameters:
*   Valid Frequency Range = 0.1MHz-100MHz
*   Ambient Temperature = 25 degC
*   Inductor Impedance Model
*   Use model for Time Domain simulations
*======================================================================
.subckt MSS4020-123_imp port1 port2 PARAMS: Cpar=0.64pF Ind=12uH
X1 port1 port2 Model1D PARAMS:
+ R1=43
+ R2=0.28
+ C= {Cpar}
+ K1=0.0000001
+ K2=1.9
+ K3= {Ind}
+ K4=0.497
+ K5=0.00000984
+ L=0
+ Is=0
+ a=0
+ L_Z0=0
+ L_EL=0
+ L_F0=0E6
+ PkZ=13581.9006
.ends MSS4020-123_imp

*======================================================================
* SPICE Model generated by Coilcraft
* Coilcraft Part Number : MSS4020-153
* Inductance = 15uH
*======================================================================
* Model Parameters:
*   Valid Frequency Range = 0.1MHz-100MHz
*   Ambient Temperature = 25 degC
*   Inductor Frequency Model
*   Use model for Frequency Domain simulations
*======================================================================
.subckt MSS4020-153_freq port1 port2 PARAMS: Cpar=0.896pF Ind=15uH
X1 port1 port2 Model1A PARAMS:
+ R1=10
+ R2=0.33
+ C= {Cpar}
+ K1=0.00001
+ K2=2.4
+ K3= {Ind}
+ K4=0.497
+ K5=0.00000944
+ L=0
+ Is=0
+ a=0
+ L_Z0=0
+ L_EL=0
+ L_F0=0E6
+ PkZ=16506.3344
.ends MSS4020-153_freq

*======================================================================
* SPICE Model generated by Coilcraft
* Coilcraft Part Number : MSS4020-153
* Inductance = 15uH
*======================================================================
* Model Parameters:
*   Valid Frequency Range = 0.1MHz-100MHz
*   Ambient Temperature = 25 degC
*   Inductor Impedance Model
*   Use model for Time Domain simulations
*======================================================================
.subckt MSS4020-153_imp port1 port2 PARAMS: Cpar=0.72pF Ind=15uH
X1 port1 port2 Model1D PARAMS:
+ R1=10
+ R2=0.33
+ C= {Cpar}
+ K1=0.00001
+ K2=2.4
+ K3= {Ind}
+ K4=0.497
+ K5=0.00000944
+ L=0
+ Is=0
+ a=0
+ L_Z0=0
+ L_EL=0
+ L_F0=0E6
+ PkZ=16506.3344
.ends MSS4020-153_imp

*======================================================================
* SPICE Model generated by Coilcraft
* Coilcraft Part Number : MSS4020-183
* Inductance = 18uH
*======================================================================
* Model Parameters:
*   Valid Frequency Range = 0.1MHz-90MHz
*   Ambient Temperature = 25 degC
*   Inductor Frequency Model
*   Use model for Frequency Domain simulations
*======================================================================
.subckt MSS4020-183_freq port1 port2 PARAMS: Cpar=1.15pF Ind=18uH
X1 port1 port2 Model1A PARAMS:
+ R1=11
+ R2=0.36
+ C= {Cpar}
+ K1=0.00001
+ K2=2.98
+ K3= {Ind}
+ K4=0.728
+ K5=0.00000983
+ L=0
+ Is=0
+ a=0
+ L_Z0=0
+ L_EL=0
+ L_F0=0E6
+ PkZ=18516.6769
.ends MSS4020-183_freq

*======================================================================
* SPICE Model generated by Coilcraft
* Coilcraft Part Number : MSS4020-183
* Inductance = 18uH
*======================================================================
* Model Parameters:
*   Valid Frequency Range = 0.1MHz-90MHz
*   Ambient Temperature = 25 degC
*   Inductor Impedance Model
*   Use model for Time Domain simulations
*======================================================================
.subckt MSS4020-183_imp port1 port2 PARAMS: Cpar=0.88pF Ind=18uH
X1 port1 port2 Model1D PARAMS:
+ R1=11
+ R2=0.36
+ C= {Cpar}
+ K1=0.00001
+ K2=2.98
+ K3= {Ind}
+ K4=0.728
+ K5=0.00000983
+ L=0
+ Is=0
+ a=0
+ L_Z0=0
+ L_EL=0
+ L_F0=0E6
+ PkZ=18516.6769
.ends MSS4020-183_imp

*======================================================================
* SPICE Model generated by Coilcraft
* Coilcraft Part Number : MSS4020-223
* Inductance = 22uH
*======================================================================
* Model Parameters:
*   Valid Frequency Range = 0.1MHz-90MHz
*   Ambient Temperature = 25 degC
*   Inductor Frequency Model
*   Use model for Frequency Domain simulations
*======================================================================
.subckt MSS4020-223_freq port1 port2 PARAMS: Cpar=1.03pF Ind=22uH
X1 port1 port2 Model1A PARAMS:
+ R1=11
+ R2=0.48
+ C= {Cpar}
+ K1=0.00001
+ K2=3.75
+ K3= {Ind}
+ K4=0.881
+ K5=0.00000984
+ L=0
+ Is=0
+ a=0
+ L_Z0=0
+ L_EL=0
+ L_F0=0E6
+ PkZ=22790.0795
.ends MSS4020-223_freq

*======================================================================
* SPICE Model generated by Coilcraft
* Coilcraft Part Number : MSS4020-223
* Inductance = 22uH
*======================================================================
* Model Parameters:
*   Valid Frequency Range = 0.1MHz-90MHz
*   Ambient Temperature = 25 degC
*   Inductor Impedance Model
*   Use model for Time Domain simulations
*======================================================================
.subckt MSS4020-223_imp port1 port2 PARAMS: Cpar=0.79pF Ind=22uH
X1 port1 port2 Model1D PARAMS:
+ R1=11
+ R2=0.48
+ C= {Cpar}
+ K1=0.00001
+ K2=3.75
+ K3= {Ind}
+ K4=0.881
+ K5=0.00000984
+ L=0
+ Is=0
+ a=0
+ L_Z0=0
+ L_EL=0
+ L_F0=0E6
+ PkZ=22790.0795
.ends MSS4020-223_imp

*======================================================================
* SPICE Model generated by Coilcraft
* Coilcraft Part Number : MSS4020-273
* Inductance = 27uH
*======================================================================
* Model Parameters:
*   Valid Frequency Range = 0.1MHz-90MHz
*   Ambient Temperature = 25 degC
*   Inductor Frequency Model
*   Use model for Frequency Domain simulations
*======================================================================
.subckt MSS4020-273_freq port1 port2 PARAMS: Cpar=1.04pF Ind=27uH
X1 port1 port2 Model1A PARAMS:
+ R1=11
+ R2=0.56
+ C= {Cpar}
+ K1=0.00001
+ K2=4.25
+ K3= {Ind}
+ K4=0.881
+ K5=0.00000984
+ L=0
+ Is=0
+ a=0
+ L_Z0=0
+ L_EL=0
+ L_F0=0E6
+ PkZ=24202.8551
.ends MSS4020-273_freq

*======================================================================
* SPICE Model generated by Coilcraft
* Coilcraft Part Number : MSS4020-273
* Inductance = 27uH
*======================================================================
* Model Parameters:
*   Valid Frequency Range = 0.1MHz-90MHz
*   Ambient Temperature = 25 degC
*   Inductor Impedance Model
*   Use model for Time Domain simulations
*======================================================================
.subckt MSS4020-273_imp port1 port2 PARAMS: Cpar=0.85pF Ind=27uH
X1 port1 port2 Model1D PARAMS:
+ R1=11
+ R2=0.56
+ C= {Cpar}
+ K1=0.00001
+ K2=4.25
+ K3= {Ind}
+ K4=0.881
+ K5=0.00000984
+ L=0
+ Is=0
+ a=0
+ L_Z0=0
+ L_EL=0
+ L_F0=0E6
+ PkZ=24202.8551
.ends MSS4020-273_imp

*======================================================================
* SPICE Model generated by Coilcraft
* Coilcraft Part Number : MSS4020-333
* Inductance = 33uH
*======================================================================
* Model Parameters:
*   Valid Frequency Range = 0.1MHz-90MHz
*   Ambient Temperature = 25 degC
*   Inductor Frequency Model
*   Use model for Frequency Domain simulations
*======================================================================
.subckt MSS4020-333_freq port1 port2 PARAMS: Cpar=1.06pF Ind=33uH
X1 port1 port2 Model1A PARAMS:
+ R1=12
+ R2=0.62
+ C= {Cpar}
+ K1=0.00001
+ K2=5.14
+ K3= {Ind}
+ K4=1.29
+ K5=0.00000985
+ L=0
+ Is=0
+ a=0
+ L_Z0=0
+ L_EL=0
+ L_F0=0E6
+ PkZ=27945.9827
.ends MSS4020-333_freq

*======================================================================
* SPICE Model generated by Coilcraft
* Coilcraft Part Number : MSS4020-333
* Inductance = 33uH
*======================================================================
* Model Parameters:
*   Valid Frequency Range = 0.1MHz-90MHz
*   Ambient Temperature = 25 degC
*   Inductor Impedance Model
*   Use model for Time Domain simulations
*======================================================================
.subckt MSS4020-333_imp port1 port2 PARAMS: Cpar=0.83pF Ind=33uH
X1 port1 port2 Model1D PARAMS:
+ R1=12
+ R2=0.62
+ C= {Cpar}
+ K1=0.00001
+ K2=5.14
+ K3= {Ind}
+ K4=1.29
+ K5=0.00000985
+ L=0
+ Is=0
+ a=0
+ L_Z0=0
+ L_EL=0
+ L_F0=0E6
+ PkZ=27945.9827
.ends MSS4020-333_imp

*======================================================================
* SPICE Model generated by Coilcraft
* Coilcraft Part Number : MSS4020-393
* Inductance = 39uH
*======================================================================
* Model Parameters:
*   Valid Frequency Range = 0.1MHz-80MHz
*   Ambient Temperature = 25 degC
*   Inductor Frequency Model
*   Use model for Frequency Domain simulations
*======================================================================
.subckt MSS4020-393_freq port1 port2 PARAMS: Cpar=0.847pF Ind=39uH
X1 port1 port2 Model1A PARAMS:
+ R1=15
+ R2=0.82
+ C= {Cpar}
+ K1=0.00001
+ K2=5.78
+ K3= {Ind}
+ K4=1.27
+ K5=0.00000983
+ L=0
+ Is=0
+ a=0
+ L_Z0=0
+ L_EL=0
+ L_F0=0E6
+ PkZ=31577.9768
.ends MSS4020-393_freq

*======================================================================
* SPICE Model generated by Coilcraft
* Coilcraft Part Number : MSS4020-393
* Inductance = 39uH
*======================================================================
* Model Parameters:
*   Valid Frequency Range = 0.1MHz-80MHz
*   Ambient Temperature = 25 degC
*   Inductor Impedance Model
*   Use model for Time Domain simulations
*======================================================================
.subckt MSS4020-393_imp port1 port2 PARAMS: Cpar=0.69pF Ind=39uH
X1 port1 port2 Model1D PARAMS:
+ R1=15
+ R2=0.82
+ C= {Cpar}
+ K1=0.00001
+ K2=5.78
+ K3= {Ind}
+ K4=1.27
+ K5=0.00000983
+ L=0
+ Is=0
+ a=0
+ L_Z0=0
+ L_EL=0
+ L_F0=0E6
+ PkZ=31577.9768
.ends MSS4020-393_imp

*======================================================================
* SPICE Model generated by Coilcraft
* Coilcraft Part Number : MSS4020-473
* Inductance = 47uH
*======================================================================
* Model Parameters:
*   Valid Frequency Range = 0.1MHz-70MHz
*   Ambient Temperature = 25 degC
*   Inductor Frequency Model
*   Use model for Frequency Domain simulations
*======================================================================
.subckt MSS4020-473_freq port1 port2 PARAMS: Cpar=1.11pF Ind=47uH
X1 port1 port2 Model1A PARAMS:
+ R1=12
+ R2=0.93
+ C= {Cpar}
+ K1=0.00001
+ K2=7.4
+ K3= {Ind}
+ K4=1.27
+ K5=0.00000983
+ L=0
+ Is=0
+ a=0
+ L_Z0=0
+ L_EL=0
+ L_F0=0E6
+ PkZ=35694.9724
.ends MSS4020-473_freq

*======================================================================
* SPICE Model generated by Coilcraft
* Coilcraft Part Number : MSS4020-473
* Inductance = 47uH
*======================================================================
* Model Parameters:
*   Valid Frequency Range = 0.1MHz-70MHz
*   Ambient Temperature = 25 degC
*   Inductor Impedance Model
*   Use model for Time Domain simulations
*======================================================================
.subckt MSS4020-473_imp port1 port2 PARAMS: Cpar=0.95pF Ind=47uH
X1 port1 port2 Model1D PARAMS:
+ R1=12
+ R2=0.93
+ C= {Cpar}
+ K1=0.00001
+ K2=7.4
+ K3= {Ind}
+ K4=1.27
+ K5=0.00000983
+ L=0
+ Is=0
+ a=0
+ L_Z0=0
+ L_EL=0
+ L_F0=0E6
+ PkZ=35694.9724
.ends MSS4020-473_imp

*======================================================================
* SPICE Model generated by Coilcraft
* Coilcraft Part Number : MSS4020-563
* Inductance = 56uH
*======================================================================
* Model Parameters:
*   Valid Frequency Range = 0.1MHz-60MHz
*   Ambient Temperature = 25 degC
*   Inductor Frequency Model
*   Use model for Frequency Domain simulations
*======================================================================
.subckt MSS4020-563_freq port1 port2 PARAMS: Cpar=1.15pF Ind=56uH
X1 port1 port2 Model1A PARAMS:
+ R1=10
+ R2=1.2
+ C= {Cpar}
+ K1=0.00001
+ K2=9.23
+ K3= {Ind}
+ K4=1.54
+ K5=0.00000984
+ L=0
+ Is=0
+ a=0
+ L_Z0=0
+ L_EL=0
+ L_F0=0E6
+ PkZ=42305.6317
.ends MSS4020-563_freq

*======================================================================
* SPICE Model generated by Coilcraft
* Coilcraft Part Number : MSS4020-563
* Inductance = 56uH
*======================================================================
* Model Parameters:
*   Valid Frequency Range = 0.1MHz-60MHz
*   Ambient Temperature = 25 degC
*   Inductor Impedance Model
*   Use model for Time Domain simulations
*======================================================================
.subckt MSS4020-563_imp port1 port2 PARAMS: Cpar=0.98pF Ind=56uH
X1 port1 port2 Model1D PARAMS:
+ R1=10
+ R2=1.2
+ C= {Cpar}
+ K1=0.00001
+ K2=9.23
+ K3= {Ind}
+ K4=1.54
+ K5=0.00000984
+ L=0
+ Is=0
+ a=0
+ L_Z0=0
+ L_EL=0
+ L_F0=0E6
+ PkZ=42305.6317
.ends MSS4020-563_imp

*======================================================================
* SPICE Model generated by Coilcraft
* Coilcraft Part Number : MSS4020-683
* Inductance = 68uH
*======================================================================
* Model Parameters:
*   Valid Frequency Range = 0.1MHz-50MHz
*   Ambient Temperature = 25 degC
*   Inductor Frequency Model
*   Use model for Frequency Domain simulations
*======================================================================
.subckt MSS4020-683_freq port1 port2 PARAMS: Cpar=1.27pF Ind=68uH
X1 port1 port2 Model1A PARAMS:
+ R1=22
+ R2=1.33
+ C= {Cpar}
+ K1=0.00001
+ K2=9.7
+ K3= {Ind}
+ K4=2.05
+ K5=0.00000983
+ L=0
+ Is=0
+ a=0
+ L_Z0=0
+ L_EL=0
+ L_F0=0E6
+ PkZ=41021.0421
.ends MSS4020-683_freq

*======================================================================
* SPICE Model generated by Coilcraft
* Coilcraft Part Number : MSS4020-683
* Inductance = 68uH
*======================================================================
* Model Parameters:
*   Valid Frequency Range = 0.1MHz-50MHz
*   Ambient Temperature = 25 degC
*   Inductor Impedance Model
*   Use model for Time Domain simulations
*======================================================================
.subckt MSS4020-683_imp port1 port2 PARAMS: Cpar=1.07pF Ind=68uH
X1 port1 port2 Model1D PARAMS:
+ R1=22
+ R2=1.33
+ C= {Cpar}
+ K1=0.00001
+ K2=9.7
+ K3= {Ind}
+ K4=2.05
+ K5=0.00000983
+ L=0
+ Is=0
+ a=0
+ L_Z0=0
+ L_EL=0
+ L_F0=0E6
+ PkZ=41021.0421
.ends MSS4020-683_imp

*======================================================================
* SPICE Model generated by Coilcraft
* Coilcraft Part Number : MSS4020-823
* Inductance = 82uH
*======================================================================
* Model Parameters:
*   Valid Frequency Range = 0.1MHz-50MHz
*   Ambient Temperature = 25 degC
*   Inductor Frequency Model
*   Use model for Frequency Domain simulations
*======================================================================
.subckt MSS4020-823_freq port1 port2 PARAMS: Cpar=1.22pF Ind=82uH
X1 port1 port2 Model1A PARAMS:
+ R1=14
+ R2=1.5
+ C= {Cpar}
+ K1=0.00001
+ K2=9.78
+ K3= {Ind}
+ K4=2.97
+ K5=0.00000982
+ L=0
+ Is=0
+ a=0
+ L_Z0=0
+ L_EL=0
+ L_F0=0E6
+ PkZ=40597.1759
.ends MSS4020-823_freq

*======================================================================
* SPICE Model generated by Coilcraft
* Coilcraft Part Number : MSS4020-823
* Inductance = 82uH
*======================================================================
* Model Parameters:
*   Valid Frequency Range = 0.1MHz-50MHz
*   Ambient Temperature = 25 degC
*   Inductor Impedance Model
*   Use model for Time Domain simulations
*======================================================================
.subckt MSS4020-823_imp port1 port2 PARAMS: Cpar=1.00pF Ind=82uH
X1 port1 port2 Model1D PARAMS:
+ R1=14
+ R2=1.5
+ C= {Cpar}
+ K1=0.00001
+ K2=9.78
+ K3= {Ind}
+ K4=2.97
+ K5=0.00000982
+ L=0
+ Is=0
+ a=0
+ L_Z0=0
+ L_EL=0
+ L_F0=0E6
+ PkZ=40597.1759
.ends MSS4020-823_imp

*======================================================================
* SPICE Model generated by Coilcraft
* Coilcraft Part Number : MSS4020-104
* Inductance = 100uH
*======================================================================
* Model Parameters:
*   Valid Frequency Range = 0.1MHz-50MHz
*   Ambient Temperature = 25 degC
*   Inductor Frequency Model
*   Use model for Frequency Domain simulations
*======================================================================
.subckt MSS4020-104_freq port1 port2 PARAMS: Cpar=1.09pF Ind=100uH
X1 port1 port2 Model1A PARAMS:
+ R1=8
+ R2=2.1
+ C= {Cpar}
+ K1=0.00001
+ K2=13.7
+ K3= {Ind}
+ K4=2.98
+ K5=0.00000983
+ L=0
+ Is=0
+ a=0
+ L_Z0=0
+ L_EL=0
+ L_F0=0E6
+ PkZ=55372.0969
.ends MSS4020-104_freq

*======================================================================
* SPICE Model generated by Coilcraft
* Coilcraft Part Number : MSS4020-104
* Inductance = 100uH
*======================================================================
* Model Parameters:
*   Valid Frequency Range = 0.1MHz-50MHz
*   Ambient Temperature = 25 degC
*   Inductor Impedance Model
*   Use model for Time Domain simulations
*======================================================================
.subckt MSS4020-104_imp port1 port2 PARAMS: Cpar=0.93pF Ind=100uH
X1 port1 port2 Model1D PARAMS:
+ R1=8
+ R2=2.1
+ C= {Cpar}
+ K1=0.00001
+ K2=13.7
+ K3= {Ind}
+ K4=2.98
+ K5=0.00000983
+ L=0
+ Is=0
+ a=0
+ L_Z0=0
+ L_EL=0
+ L_F0=0E6
+ PkZ=55372.0969
.ends MSS4020-104_imp

*======================================================================
* SPICE Model generated by Coilcraft
* Coilcraft Impedance Inductor Model
*======================================================================
* Model Parameters:
*   Valid Frequency Range Varies by Inductor
*   Ambient Temperature = 25 degC
*   Time Domain Inductor Impedance Model
*======================================================================
.subckt Model1D Lin Lout PARAMS:
+ R1=1
+ R2=1
+ C=1
+ K3=1
+ PkZ=1
R2 Lin N001 {R2}
R3 N001 Lout {PkZ}
C1 N001 N002 {C}
R1 N002 Lout {R1}
L1 N001 Lout {K3}
.ends Model1D

*======================================================================
* SPICE Model generated by Coilcraft
* Coilcraft Power Inductor Model
*======================================================================
* Model Parameters:
*   Valid Frequency Range Varies by Inductor
*   Ambient Temperature = 25 degC
*   DC Bias Current = 0 A
*   Frequency Dependent Inductor Model
*======================================================================
.subckt Model1A Lin Lout PARAMS:
+ R1=1
+ R2=1
+ C=1
+ K1=1
+ K2=1
+ K3=1
+ K4=1
+ K5=1
R2 N001 Lin {R2}
R1 Lout N002 {R1}
C1 N002 N001 {C}
G_Rvar2 N001 Lout LAPLACE { V(N001, Lout) } {1/K2/(-S*S/4/PI^2)^0.25}
G_Rvar1 N001 N003 LAPLACE { V(N001, N003) } {1/K1/(-S*S/4/PI^2)^0.25}
G_Lvar N003 Lout  LAPLACE { V(N003, Lout) } {1/(S*1e-6*({K3*1e6}-({K4}*LOG({K5}*(sqrt(-S*S)/(2*pi))))))}
*This large resistance to ground has been added to prevent a floating node error
R3 N003 0 100Meg
.ends Model1A


.subckt Coilcraft_Inductor Lin Lout