*======================================================================
* SPICE Model generated by Coilcraft
* Coilcraft Part Number : MSS5131-222
* Inductance = 2.2uH
*======================================================================
* Model Parameters:
*   Valid Frequency Range = 0.1MHz-40MHz
*   Ambient Temperature = 25 degC
*   Inductor Frequency Model
*   Use model for Frequency Domain simulations
*======================================================================
.subckt MSS5131-222_freq port1 port2 PARAMS: Cpar=1.44pF Ind=2.2uH
X1 port1 port2 Model1A PARAMS:
+ R1=20
+ R2=0.023
+ C= {Cpar}
+ K1=0.0000844
+ K2=0.275
+ K3= {Ind}
+ K4=0.024
+ K5=0.00000914
+ L=0
+ Is=0
+ a=0
+ L_Z0=0
+ L_EL=0
+ L_F0=0E6
+ PkZ=2550.96813
.ends MSS5131-222_freq

*======================================================================
* SPICE Model generated by Coilcraft
* Coilcraft Part Number : MSS5131-222
* Inductance = 2.2uH
*======================================================================
* Model Parameters:
*   Valid Frequency Range = 0.1MHz-40MHz
*   Ambient Temperature = 25 degC
*   Inductor Impedance Model
*   Use model for Time Domain simulations
*======================================================================
.subckt MSS5131-222_imp port1 port2 PARAMS: Cpar=1.33pF Ind=2.2uH
X1 port1 port2 Model1D PARAMS:
+ R1=20
+ R2=0.023
+ C= {Cpar}
+ K1=0.0000844
+ K2=0.275
+ K3= {Ind}
+ K4=0.024
+ K5=0.00000914
+ L=0
+ Is=0
+ a=0
+ L_Z0=0
+ L_EL=0
+ L_F0=0E6
+ PkZ=2550.96813
.ends MSS5131-222_imp

*======================================================================
* SPICE Model generated by Coilcraft
* Coilcraft Part Number : MSS5131-332
* Inductance = 3.3uH
*======================================================================
* Model Parameters:
*   Valid Frequency Range = 0.1MHz-35MHz
*   Ambient Temperature = 25 degC
*   Inductor Frequency Model
*   Use model for Frequency Domain simulations
*======================================================================
.subckt MSS5131-332_freq port1 port2 PARAMS: Cpar=1.7pF Ind=3.3uH
X1 port1 port2 Model1A PARAMS:
+ R1=63
+ R2=0.032
+ C= {Cpar}
+ K1=0.0000016
+ K2=0.545
+ K3= {Ind}
+ K4=0.075
+ K5=0.00000976
+ L=0
+ Is=0
+ a=0
+ L_Z0=0
+ L_EL=0
+ L_F0=0E6
+ PkZ=3951.08609
.ends MSS5131-332_freq

*======================================================================
* SPICE Model generated by Coilcraft
* Coilcraft Part Number : MSS5131-332
* Inductance = 3.3uH
*======================================================================
* Model Parameters:
*   Valid Frequency Range = 0.1MHz-35MHz
*   Ambient Temperature = 25 degC
*   Inductor Impedance Model
*   Use model for Time Domain simulations
*======================================================================
.subckt MSS5131-332_imp port1 port2 PARAMS: Cpar=1.45pF Ind=3.3uH
X1 port1 port2 Model1D PARAMS:
+ R1=63
+ R2=0.032
+ C= {Cpar}
+ K1=0.0000016
+ K2=0.545
+ K3= {Ind}
+ K4=0.075
+ K5=0.00000976
+ L=0
+ Is=0
+ a=0
+ L_Z0=0
+ L_EL=0
+ L_F0=0E6
+ PkZ=3951.08609
.ends MSS5131-332_imp

*======================================================================
* SPICE Model generated by Coilcraft
* Coilcraft Part Number : MSS5131-472
* Inductance = 4.7uH
*======================================================================
* Model Parameters:
*   Valid Frequency Range = 0.1MHz-30MHz
*   Ambient Temperature = 25 degC
*   Inductor Frequency Model
*   Use model for Frequency Domain simulations
*======================================================================
.subckt MSS5131-472_freq port1 port2 PARAMS: Cpar=1.68pF Ind=4.7uH
X1 port1 port2 Model1A PARAMS:
+ R1=46
+ R2=0.045
+ C= {Cpar}
+ K1=0.000139
+ K2=0.838
+ K3= {Ind}
+ K4=0.096
+ K5=0.00000969
+ L=0
+ Is=0
+ a=0
+ L_Z0=0
+ L_EL=0
+ L_F0=0E6
+ PkZ=5797.20958
.ends MSS5131-472_freq

*======================================================================
* SPICE Model generated by Coilcraft
* Coilcraft Part Number : MSS5131-472
* Inductance = 4.7uH
*======================================================================
* Model Parameters:
*   Valid Frequency Range = 0.1MHz-30MHz
*   Ambient Temperature = 25 degC
*   Inductor Impedance Model
*   Use model for Time Domain simulations
*======================================================================
.subckt MSS5131-472_imp port1 port2 PARAMS: Cpar=1.46pF Ind=4.7uH
X1 port1 port2 Model1D PARAMS:
+ R1=46
+ R2=0.045
+ C= {Cpar}
+ K1=0.000139
+ K2=0.838
+ K3= {Ind}
+ K4=0.096
+ K5=0.00000969
+ L=0
+ Is=0
+ a=0
+ L_Z0=0
+ L_EL=0
+ L_F0=0E6
+ PkZ=5797.20958
.ends MSS5131-472_imp

*======================================================================
* SPICE Model generated by Coilcraft
* Coilcraft Part Number : MSS5131-562
* Inductance = 5.6uH
*======================================================================
* Model Parameters:
*   Valid Frequency Range = 0.1MHz-25MHz
*   Ambient Temperature = 25 degC
*   Inductor Frequency Model
*   Use model for Frequency Domain simulations
*======================================================================
.subckt MSS5131-562_freq port1 port2 PARAMS: Cpar=2.35pF Ind=5.6uH
X1 port1 port2 Model1A PARAMS:
+ R1=52
+ R2=0.055
+ C= {Cpar}
+ K1=0.000589
+ K2=1.09
+ K3= {Ind}
+ K4=0.126
+ K5=0.00000937
+ L=0
+ Is=0
+ a=0
+ L_Z0=0
+ L_EL=0
+ L_F0=0E6
+ PkZ=6220.756
.ends MSS5131-562_freq

*======================================================================
* SPICE Model generated by Coilcraft
* Coilcraft Part Number : MSS5131-562
* Inductance = 5.6uH
*======================================================================
* Model Parameters:
*   Valid Frequency Range = 0.1MHz-25MHz
*   Ambient Temperature = 25 degC
*   Inductor Impedance Model
*   Use model for Time Domain simulations
*======================================================================
.subckt MSS5131-562_imp port1 port2 PARAMS: Cpar=2.03pF Ind=5.6uH
X1 port1 port2 Model1D PARAMS:
+ R1=52
+ R2=0.055
+ C= {Cpar}
+ K1=0.000589
+ K2=1.09
+ K3= {Ind}
+ K4=0.126
+ K5=0.00000937
+ L=0
+ Is=0
+ a=0
+ L_Z0=0
+ L_EL=0
+ L_F0=0E6
+ PkZ=6220.756
.ends MSS5131-562_imp

*======================================================================
* SPICE Model generated by Coilcraft
* Coilcraft Part Number : MSS5131-682
* Inductance = 6.8uH
*======================================================================
* Model Parameters:
*   Valid Frequency Range = 0.1MHz-20MHz
*   Ambient Temperature = 25 degC
*   Inductor Frequency Model
*   Use model for Frequency Domain simulations
*======================================================================
.subckt MSS5131-682_freq port1 port2 PARAMS: Cpar=2.24pF Ind=6.8uH
X1 port1 port2 Model1A PARAMS:
+ R1=55
+ R2=0.06
+ C= {Cpar}
+ K1=0.000281
+ K2=1.2
+ K3= {Ind}
+ K4=0.147
+ K5=0.00000959
+ L=0
+ Is=0
+ a=0
+ L_Z0=0
+ L_EL=0
+ L_F0=0E6
+ PkZ=6776.98688
.ends MSS5131-682_freq

*======================================================================
* SPICE Model generated by Coilcraft
* Coilcraft Part Number : MSS5131-682
* Inductance = 6.8uH
*======================================================================
* Model Parameters:
*   Valid Frequency Range = 0.1MHz-20MHz
*   Ambient Temperature = 25 degC
*   Inductor Impedance Model
*   Use model for Time Domain simulations
*======================================================================
.subckt MSS5131-682_imp port1 port2 PARAMS: Cpar=1.95pF Ind=6.8uH
X1 port1 port2 Model1D PARAMS:
+ R1=55
+ R2=0.06
+ C= {Cpar}
+ K1=0.000281
+ K2=1.2
+ K3= {Ind}
+ K4=0.147
+ K5=0.00000959
+ L=0
+ Is=0
+ a=0
+ L_Z0=0
+ L_EL=0
+ L_F0=0E6
+ PkZ=6776.98688
.ends MSS5131-682_imp

*======================================================================
* SPICE Model generated by Coilcraft
* Coilcraft Part Number : MSS5131-822
* Inductance = 8.2uH
*======================================================================
* Model Parameters:
*   Valid Frequency Range = 0.1MHz-20MHz
*   Ambient Temperature = 25 degC
*   Inductor Frequency Model
*   Use model for Frequency Domain simulations
*======================================================================
.subckt MSS5131-822_freq port1 port2 PARAMS: Cpar=1.7pF Ind=8.2uH
X1 port1 port2 Model1A PARAMS:
+ R1=52
+ R2=0.075
+ C= {Cpar}
+ K1=0.000001
+ K2=1.22
+ K3= {Ind}
+ K4=0.17
+ K5=0.00000978
+ L=0
+ Is=0
+ a=0
+ L_Z0=0
+ L_EL=0
+ L_F0=0E6
+ PkZ=7477.3077
.ends MSS5131-822_freq

*======================================================================
* SPICE Model generated by Coilcraft
* Coilcraft Part Number : MSS5131-822
* Inductance = 8.2uH
*======================================================================
* Model Parameters:
*   Valid Frequency Range = 0.1MHz-20MHz
*   Ambient Temperature = 25 degC
*   Inductor Impedance Model
*   Use model for Time Domain simulations
*======================================================================
.subckt MSS5131-822_imp port1 port2 PARAMS: Cpar=1.49pF Ind=8.2uH
X1 port1 port2 Model1D PARAMS:
+ R1=52
+ R2=0.075
+ C= {Cpar}
+ K1=0.000001
+ K2=1.22
+ K3= {Ind}
+ K4=0.17
+ K5=0.00000978
+ L=0
+ Is=0
+ a=0
+ L_Z0=0
+ L_EL=0
+ L_F0=0E6
+ PkZ=7477.3077
.ends MSS5131-822_imp

*======================================================================
* SPICE Model generated by Coilcraft
* Coilcraft Part Number : MSS5131-103
* Inductance = 10uH
*======================================================================
* Model Parameters:
*   Valid Frequency Range = 0.1MHz-20MHz
*   Ambient Temperature = 25 degC
*   Inductor Frequency Model
*   Use model for Frequency Domain simulations
*======================================================================
.subckt MSS5131-103_freq port1 port2 PARAMS: Cpar=1.72pF Ind=10uH
X1 port1 port2 Model1A PARAMS:
+ R1=55
+ R2=0.083
+ C= {Cpar}
+ K1=0.0000228
+ K2=1.69
+ K3= {Ind}
+ K4=0.206
+ K5=0.0000098
+ L=0
+ Is=0
+ a=0
+ L_Z0=0
+ L_EL=0
+ L_F0=0E6
+ PkZ=9684.37725
.ends MSS5131-103_freq

*======================================================================
* SPICE Model generated by Coilcraft
* Coilcraft Part Number : MSS5131-103
* Inductance = 10uH
*======================================================================
* Model Parameters:
*   Valid Frequency Range = 0.1MHz-20MHz
*   Ambient Temperature = 25 degC
*   Inductor Impedance Model
*   Use model for Time Domain simulations
*======================================================================
.subckt MSS5131-103_imp port1 port2 PARAMS: Cpar=1.51pF Ind=10uH
X1 port1 port2 Model1D PARAMS:
+ R1=55
+ R2=0.083
+ C= {Cpar}
+ K1=0.0000228
+ K2=1.69
+ K3= {Ind}
+ K4=0.206
+ K5=0.0000098
+ L=0
+ Is=0
+ a=0
+ L_Z0=0
+ L_EL=0
+ L_F0=0E6
+ PkZ=9684.37725
.ends MSS5131-103_imp

*======================================================================
* SPICE Model generated by Coilcraft
* Coilcraft Part Number : MSS5131-123
* Inductance = 12uH
*======================================================================
* Model Parameters:
*   Valid Frequency Range = 0.1MHz-20MHz
*   Ambient Temperature = 25 degC
*   Inductor Frequency Model
*   Use model for Frequency Domain simulations
*======================================================================
.subckt MSS5131-123_freq port1 port2 PARAMS: Cpar=2.3pF Ind=12uH
X1 port1 port2 Model1A PARAMS:
+ R1=43
+ R2=0.1
+ C= {Cpar}
+ K1=0.000717
+ K2=1.85
+ K3= {Ind}
+ K4=0.445
+ K5=0.00000964
+ L=0
+ Is=0
+ a=0
+ L_Z0=0
+ L_EL=0
+ L_F0=0E6
+ PkZ=9608.3607
.ends MSS5131-123_freq

*======================================================================
* SPICE Model generated by Coilcraft
* Coilcraft Part Number : MSS5131-123
* Inductance = 12uH
*======================================================================
* Model Parameters:
*   Valid Frequency Range = 0.1MHz-20MHz
*   Ambient Temperature = 25 degC
*   Inductor Impedance Model
*   Use model for Time Domain simulations
*======================================================================
.subckt MSS5131-123_imp port1 port2 PARAMS: Cpar=1.82pF Ind=12uH
X1 port1 port2 Model1D PARAMS:
+ R1=43
+ R2=0.1
+ C= {Cpar}
+ K1=0.000717
+ K2=1.85
+ K3= {Ind}
+ K4=0.445
+ K5=0.00000964
+ L=0
+ Is=0
+ a=0
+ L_Z0=0
+ L_EL=0
+ L_F0=0E6
+ PkZ=9608.3607
.ends MSS5131-123_imp

*======================================================================
* SPICE Model generated by Coilcraft
* Coilcraft Part Number : MSS5131-153
* Inductance = 15uH
*======================================================================
* Model Parameters:
*   Valid Frequency Range = 0.1MHz-18MHz
*   Ambient Temperature = 25 degC
*   Inductor Frequency Model
*   Use model for Frequency Domain simulations
*======================================================================
.subckt MSS5131-153_freq port1 port2 PARAMS: Cpar=1.96pF Ind=15uH
X1 port1 port2 Model1A PARAMS:
+ R1=58
+ R2=0.115
+ C= {Cpar}
+ K1=0.0012
+ K2=2.23
+ K3= {Ind}
+ K4=0.448
+ K5=0.00000948
+ L=0
+ Is=0
+ a=0
+ L_Z0=0
+ L_EL=0
+ L_F0=0E6
+ PkZ=11205.5685
.ends MSS5131-153_freq

*======================================================================
* SPICE Model generated by Coilcraft
* Coilcraft Part Number : MSS5131-153
* Inductance = 15uH
*======================================================================
* Model Parameters:
*   Valid Frequency Range = 0.1MHz-18MHz
*   Ambient Temperature = 25 degC
*   Inductor Impedance Model
*   Use model for Time Domain simulations
*======================================================================
.subckt MSS5131-153_imp port1 port2 PARAMS: Cpar=1.63pF Ind=15uH
X1 port1 port2 Model1D PARAMS:
+ R1=58
+ R2=0.115
+ C= {Cpar}
+ K1=0.0012
+ K2=2.23
+ K3= {Ind}
+ K4=0.448
+ K5=0.00000948
+ L=0
+ Is=0
+ a=0
+ L_Z0=0
+ L_EL=0
+ L_F0=0E6
+ PkZ=11205.5685
.ends MSS5131-153_imp

*======================================================================
* SPICE Model generated by Coilcraft
* Coilcraft Part Number : MSS5131-183
* Inductance = 18uH
*======================================================================
* Model Parameters:
*   Valid Frequency Range = 0.1MHz-15MHz
*   Ambient Temperature = 25 degC
*   Inductor Frequency Model
*   Use model for Frequency Domain simulations
*======================================================================
.subckt MSS5131-183_freq port1 port2 PARAMS: Cpar=2.44pF Ind=18uH
X1 port1 port2 Model1A PARAMS:
+ R1=52
+ R2=0.15
+ C= {Cpar}
+ K1=0.0041
+ K2=3.18
+ K3= {Ind}
+ K4=0.49
+ K5=0.00000895
+ L=0
+ Is=0
+ a=0
+ L_Z0=0
+ L_EL=0
+ L_F0=0E6
+ PkZ=13646.4757
.ends MSS5131-183_freq

*======================================================================
* SPICE Model generated by Coilcraft
* Coilcraft Part Number : MSS5131-183
* Inductance = 18uH
*======================================================================
* Model Parameters:
*   Valid Frequency Range = 0.1MHz-15MHz
*   Ambient Temperature = 25 degC
*   Inductor Impedance Model
*   Use model for Time Domain simulations
*======================================================================
.subckt MSS5131-183_imp port1 port2 PARAMS: Cpar=2.08pF Ind=18uH
X1 port1 port2 Model1D PARAMS:
+ R1=52
+ R2=0.15
+ C= {Cpar}
+ K1=0.0041
+ K2=3.18
+ K3= {Ind}
+ K4=0.49
+ K5=0.00000895
+ L=0
+ Is=0
+ a=0
+ L_Z0=0
+ L_EL=0
+ L_F0=0E6
+ PkZ=13646.4757
.ends MSS5131-183_imp

*======================================================================
* SPICE Model generated by Coilcraft
* Coilcraft Part Number : MSS5131-223
* Inductance = 22uH
*======================================================================
* Model Parameters:
*   Valid Frequency Range = 0.1MHz-12MHz
*   Ambient Temperature = 25 degC
*   Inductor Frequency Model
*   Use model for Frequency Domain simulations
*======================================================================
.subckt MSS5131-223_freq port1 port2 PARAMS: Cpar=2.09pF Ind=22uH
X1 port1 port2 Model1A PARAMS:
+ R1=45
+ R2=0.16
+ C= {Cpar}
+ K1=0.00107
+ K2=3.58
+ K3= {Ind}
+ K4=0.523
+ K5=0.00000958
+ L=0
+ Is=0
+ a=0
+ L_Z0=0
+ L_EL=0
+ L_F0=0E6
+ PkZ=16339.8289
.ends MSS5131-223_freq

*======================================================================
* SPICE Model generated by Coilcraft
* Coilcraft Part Number : MSS5131-223
* Inductance = 22uH
*======================================================================
* Model Parameters:
*   Valid Frequency Range = 0.1MHz-12MHz
*   Ambient Temperature = 25 degC
*   Inductor Impedance Model
*   Use model for Time Domain simulations
*======================================================================
.subckt MSS5131-223_imp port1 port2 PARAMS: Cpar=1.82pF Ind=22uH
X1 port1 port2 Model1D PARAMS:
+ R1=45
+ R2=0.16
+ C= {Cpar}
+ K1=0.00107
+ K2=3.58
+ K3= {Ind}
+ K4=0.523
+ K5=0.00000958
+ L=0
+ Is=0
+ a=0
+ L_Z0=0
+ L_EL=0
+ L_F0=0E6
+ PkZ=16339.8289
.ends MSS5131-223_imp

*======================================================================
* SPICE Model generated by Coilcraft
* Coilcraft Part Number : MSS5131-273
* Inductance = 27uH
*======================================================================
* Model Parameters:
*   Valid Frequency Range = 0.1MHz-10MHz
*   Ambient Temperature = 25 degC
*   Inductor Frequency Model
*   Use model for Frequency Domain simulations
*======================================================================
.subckt MSS5131-273_freq port1 port2 PARAMS: Cpar=2.57pF Ind=27uH
X1 port1 port2 Model1A PARAMS:
+ R1=42
+ R2=0.19
+ C= {Cpar}
+ K1=0.00147
+ K2=5.36
+ K3= {Ind}
+ K4=0.66
+ K5=0.00000964
+ L=0
+ Is=0
+ a=0
+ L_Z0=0
+ L_EL=0
+ L_F0=0E6
+ PkZ=21475.1148
.ends MSS5131-273_freq

*======================================================================
* SPICE Model generated by Coilcraft
* Coilcraft Part Number : MSS5131-273
* Inductance = 27uH
*======================================================================
* Model Parameters:
*   Valid Frequency Range = 0.1MHz-10MHz
*   Ambient Temperature = 25 degC
*   Inductor Impedance Model
*   Use model for Time Domain simulations
*======================================================================
.subckt MSS5131-273_imp port1 port2 PARAMS: Cpar=2.24pF Ind=27uH
X1 port1 port2 Model1D PARAMS:
+ R1=42
+ R2=0.19
+ C= {Cpar}
+ K1=0.00147
+ K2=5.36
+ K3= {Ind}
+ K4=0.66
+ K5=0.00000964
+ L=0
+ Is=0
+ a=0
+ L_Z0=0
+ L_EL=0
+ L_F0=0E6
+ PkZ=21475.1148
.ends MSS5131-273_imp

*======================================================================
* SPICE Model generated by Coilcraft
* Coilcraft Part Number : MSS5131-333
* Inductance = 33uH
*======================================================================
* Model Parameters:
*   Valid Frequency Range = 0.1MHz-10MHz
*   Ambient Temperature = 25 degC
*   Inductor Frequency Model
*   Use model for Frequency Domain simulations
*======================================================================
.subckt MSS5131-333_freq port1 port2 PARAMS: Cpar=2.78pF Ind=33uH
X1 port1 port2 Model1A PARAMS:
+ R1=44
+ R2=0.216
+ C= {Cpar}
+ K1=0.00563
+ K2=5.18
+ K3= {Ind}
+ K4=0.79
+ K5=0.00000898
+ L=0
+ Is=0
+ a=0
+ L_Z0=0
+ L_EL=0
+ L_F0=0E6
+ PkZ=19098.5298
.ends MSS5131-333_freq

*======================================================================
* SPICE Model generated by Coilcraft
* Coilcraft Part Number : MSS5131-333
* Inductance = 33uH
*======================================================================
* Model Parameters:
*   Valid Frequency Range = 0.1MHz-10MHz
*   Ambient Temperature = 25 degC
*   Inductor Impedance Model
*   Use model for Time Domain simulations
*======================================================================
.subckt MSS5131-333_imp port1 port2 PARAMS: Cpar=2.45pF Ind=33uH
X1 port1 port2 Model1D PARAMS:
+ R1=44
+ R2=0.216
+ C= {Cpar}
+ K1=0.00563
+ K2=5.18
+ K3= {Ind}
+ K4=0.79
+ K5=0.00000898
+ L=0
+ Is=0
+ a=0
+ L_Z0=0
+ L_EL=0
+ L_F0=0E6
+ PkZ=19098.5298
.ends MSS5131-333_imp

*======================================================================
* SPICE Model generated by Coilcraft
* Coilcraft Part Number : MSS5131-393
* Inductance = 39uH
*======================================================================
* Model Parameters:
*   Valid Frequency Range = 0.1MHz-10MHz
*   Ambient Temperature = 25 degC
*   Inductor Frequency Model
*   Use model for Frequency Domain simulations
*======================================================================
.subckt MSS5131-393_freq port1 port2 PARAMS: Cpar=2.41pF Ind=39uH
X1 port1 port2 Model1A PARAMS:
+ R1=30
+ R2=0.29
+ C= {Cpar}
+ K1=0.00768
+ K2=7.43
+ K3= {Ind}
+ K4=0.97
+ K5=0.00000907
+ L=0
+ Is=0
+ a=0
+ L_Z0=0
+ L_EL=0
+ L_F0=0E6
+ PkZ=27373.7068
.ends MSS5131-393_freq

*======================================================================
* SPICE Model generated by Coilcraft
* Coilcraft Part Number : MSS5131-393
* Inductance = 39uH
*======================================================================
* Model Parameters:
*   Valid Frequency Range = 0.1MHz-10MHz
*   Ambient Temperature = 25 degC
*   Inductor Impedance Model
*   Use model for Time Domain simulations
*======================================================================
.subckt MSS5131-393_imp port1 port2 PARAMS: Cpar=2.11pF Ind=39uH
X1 port1 port2 Model1D PARAMS:
+ R1=30
+ R2=0.29
+ C= {Cpar}
+ K1=0.00768
+ K2=7.43
+ K3= {Ind}
+ K4=0.97
+ K5=0.00000907
+ L=0
+ Is=0
+ a=0
+ L_Z0=0
+ L_EL=0
+ L_F0=0E6
+ PkZ=27373.7068
.ends MSS5131-393_imp

*======================================================================
* SPICE Model generated by Coilcraft
* Coilcraft Part Number : MSS5131-473
* Inductance = 47uH
*======================================================================
* Model Parameters:
*   Valid Frequency Range = 0.1MHz-10MHz
*   Ambient Temperature = 25 degC
*   Inductor Frequency Model
*   Use model for Frequency Domain simulations
*======================================================================
.subckt MSS5131-473_freq port1 port2 PARAMS: Cpar=2.01pF Ind=47uH
X1 port1 port2 Model1A PARAMS:
+ R1=58
+ R2=0.32
+ C= {Cpar}
+ K1=0.0000065
+ K2=6.61
+ K3= {Ind}
+ K4=1.1
+ K5=0.00000974
+ L=0
+ Is=0
+ a=0
+ L_Z0=0
+ L_EL=0
+ L_F0=0E6
+ PkZ=25614.3203
.ends MSS5131-473_freq

*======================================================================
* SPICE Model generated by Coilcraft
* Coilcraft Part Number : MSS5131-473
* Inductance = 47uH
*======================================================================
* Model Parameters:
*   Valid Frequency Range = 0.1MHz-10MHz
*   Ambient Temperature = 25 degC
*   Inductor Impedance Model
*   Use model for Time Domain simulations
*======================================================================
.subckt MSS5131-473_imp port1 port2 PARAMS: Cpar=1.77pF Ind=47uH
X1 port1 port2 Model1D PARAMS:
+ R1=58
+ R2=0.32
+ C= {Cpar}
+ K1=0.0000065
+ K2=6.61
+ K3= {Ind}
+ K4=1.1
+ K5=0.00000974
+ L=0
+ Is=0
+ a=0
+ L_Z0=0
+ L_EL=0
+ L_F0=0E6
+ PkZ=25614.3203
.ends MSS5131-473_imp

*======================================================================
* SPICE Model generated by Coilcraft
* Coilcraft Part Number : MSS5131-563
* Inductance = 56uH
*======================================================================
* Model Parameters:
*   Valid Frequency Range = 0.1MHz-10MHz
*   Ambient Temperature = 25 degC
*   Inductor Frequency Model
*   Use model for Frequency Domain simulations
*======================================================================
.subckt MSS5131-563_freq port1 port2 PARAMS: Cpar=1.83pF Ind=56uH
X1 port1 port2 Model1A PARAMS:
+ R1=68
+ R2=0.365
+ C= {Cpar}
+ K1=0.00147
+ K2=7.82
+ K3= {Ind}
+ K4=1.03
+ K5=0.0000096
+ L=0
+ Is=0
+ a=0
+ L_Z0=0
+ L_EL=0
+ L_F0=0E6
+ PkZ=29288.5198
.ends MSS5131-563_freq

*======================================================================
* SPICE Model generated by Coilcraft
* Coilcraft Part Number : MSS5131-563
* Inductance = 56uH
*======================================================================
* Model Parameters:
*   Valid Frequency Range = 0.1MHz-10MHz
*   Ambient Temperature = 25 degC
*   Inductor Impedance Model
*   Use model for Time Domain simulations
*======================================================================
.subckt MSS5131-563_imp port1 port2 PARAMS: Cpar=1.66pF Ind=56uH
X1 port1 port2 Model1D PARAMS:
+ R1=68
+ R2=0.365
+ C= {Cpar}
+ K1=0.00147
+ K2=7.82
+ K3= {Ind}
+ K4=1.03
+ K5=0.0000096
+ L=0
+ Is=0
+ a=0
+ L_Z0=0
+ L_EL=0
+ L_F0=0E6
+ PkZ=29288.5198
.ends MSS5131-563_imp

*======================================================================
* SPICE Model generated by Coilcraft
* Coilcraft Part Number : MSS5131-683
* Inductance = 68uH
*======================================================================
* Model Parameters:
*   Valid Frequency Range = 0.1MHz-8MHz
*   Ambient Temperature = 25 degC
*   Inductor Frequency Model
*   Use model for Frequency Domain simulations
*======================================================================
.subckt MSS5131-683_freq port1 port2 PARAMS: Cpar=2.57pF Ind=68uH
X1 port1 port2 Model1A PARAMS:
+ R1=86
+ R2=0.48
+ C= {Cpar}
+ K1=0.000741
+ K2=10
+ K3= {Ind}
+ K4=1.26
+ K5=0.00000974
+ L=0
+ Is=0
+ a=0
+ L_Z0=0
+ L_EL=0
+ L_F0=0E6
+ PkZ=31411.1123
.ends MSS5131-683_freq

*======================================================================
* SPICE Model generated by Coilcraft
* Coilcraft Part Number : MSS5131-683
* Inductance = 68uH
*======================================================================
* Model Parameters:
*   Valid Frequency Range = 0.1MHz-8MHz
*   Ambient Temperature = 25 degC
*   Inductor Impedance Model
*   Use model for Time Domain simulations
*======================================================================
.subckt MSS5131-683_imp port1 port2 PARAMS: Cpar=2.34pF Ind=68uH
X1 port1 port2 Model1D PARAMS:
+ R1=86
+ R2=0.48
+ C= {Cpar}
+ K1=0.000741
+ K2=10
+ K3= {Ind}
+ K4=1.26
+ K5=0.00000974
+ L=0
+ Is=0
+ a=0
+ L_Z0=0
+ L_EL=0
+ L_F0=0E6
+ PkZ=31411.1123
.ends MSS5131-683_imp

*======================================================================
* SPICE Model generated by Coilcraft
* Coilcraft Part Number : MSS5131-823
* Inductance = 82uH
*======================================================================
* Model Parameters:
*   Valid Frequency Range = 0.1MHz-6MHz
*   Ambient Temperature = 25 degC
*   Inductor Frequency Model
*   Use model for Frequency Domain simulations
*======================================================================
.subckt MSS5131-823_freq port1 port2 PARAMS: Cpar=2.97pF Ind=82uH
X1 port1 port2 Model1A PARAMS:
+ R1=104
+ R2=0.52
+ C= {Cpar}
+ K1=0.00175
+ K2=14.4
+ K3= {Ind}
+ K4=2.46
+ K5=0.0000098
+ L=0
+ Is=0
+ a=0
+ L_Z0=0
+ L_EL=0
+ L_F0=0E6
+ PkZ=39103.612
.ends MSS5131-823_freq

*======================================================================
* SPICE Model generated by Coilcraft
* Coilcraft Part Number : MSS5131-823
* Inductance = 82uH
*======================================================================
* Model Parameters:
*   Valid Frequency Range = 0.1MHz-6MHz
*   Ambient Temperature = 25 degC
*   Inductor Impedance Model
*   Use model for Time Domain simulations
*======================================================================
.subckt MSS5131-823_imp port1 port2 PARAMS: Cpar=2.56pF Ind=82uH
X1 port1 port2 Model1D PARAMS:
+ R1=104
+ R2=0.52
+ C= {Cpar}
+ K1=0.00175
+ K2=14.4
+ K3= {Ind}
+ K4=2.46
+ K5=0.0000098
+ L=0
+ Is=0
+ a=0
+ L_Z0=0
+ L_EL=0
+ L_F0=0E6
+ PkZ=39103.612
.ends MSS5131-823_imp

*======================================================================
* SPICE Model generated by Coilcraft
* Coilcraft Part Number : MSS5131-104
* Inductance = 100uH
*======================================================================
* Model Parameters:
*   Valid Frequency Range = 0.1MHz-6MHz
*   Ambient Temperature = 25 degC
*   Inductor Frequency Model
*   Use model for Frequency Domain simulations
*======================================================================
.subckt MSS5131-104_freq port1 port2 PARAMS: Cpar=2.72pF Ind=100uH
X1 port1 port2 Model1A PARAMS:
+ R1=72
+ R2=0.7
+ C= {Cpar}
+ K1=0.00235
+ K2=15.2
+ K3= {Ind}
+ K4=2.04
+ K5=0.00000982
+ L=0
+ Is=0
+ a=0
+ L_Z0=0
+ L_EL=0
+ L_F0=0E6
+ PkZ=43379.405
.ends MSS5131-104_freq

*======================================================================
* SPICE Model generated by Coilcraft
* Coilcraft Part Number : MSS5131-104
* Inductance = 100uH
*======================================================================
* Model Parameters:
*   Valid Frequency Range = 0.1MHz-6MHz
*   Ambient Temperature = 25 degC
*   Inductor Impedance Model
*   Use model for Time Domain simulations
*======================================================================
.subckt MSS5131-104_imp port1 port2 PARAMS: Cpar=2.47pF Ind=100uH
X1 port1 port2 Model1D PARAMS:
+ R1=72
+ R2=0.7
+ C= {Cpar}
+ K1=0.00235
+ K2=15.2
+ K3= {Ind}
+ K4=2.04
+ K5=0.00000982
+ L=0
+ Is=0
+ a=0
+ L_Z0=0
+ L_EL=0
+ L_F0=0E6
+ PkZ=43379.405
.ends MSS5131-104_imp

*======================================================================