*======================================================================
* SPICE Model generated by Coilcraft
* Coilcraft Part Number : MSS6122-472
* Inductance = 4.7uH
*======================================================================
* Model Parameters:
*   Valid Frequency Range = 0.1MHz-80MHz
*   Ambient Temperature = 25 degC
*   Inductor Frequency Model
*   Use model for Frequency Domain simulations
*======================================================================
.subckt MSS6122-472_freq port1 port2 PARAMS: Cpar=1.14pF Ind=4.7uH
X1 port1 port2 Model1A PARAMS:
+ R1=35
+ R2=0.065
+ C= {Cpar}
+ K1=0.00026
+ K2=0.88
+ K3= {Ind}
+ K4=0.112
+ K5=0.00000959
+ L=0
+ Is=0
+ a=0
+ L_Z0=0
+ L_EL=0
+ L_F0=0E6
+ PkZ=7037.35273
.ends MSS6122-472_freq

*======================================================================
* SPICE Model generated by Coilcraft
* Coilcraft Part Number : MSS6122-472
* Inductance = 4.7uH
*======================================================================
* Model Parameters:
*   Valid Frequency Range = 0.1MHz-80MHz
*   Ambient Temperature = 25 degC
*   Inductor Impedance Model
*   Use model for Time Domain simulations
*======================================================================
.subckt MSS6122-472_imp port1 port2 PARAMS: Cpar=0.96pF Ind=4.7uH
X1 port1 port2 Model1D PARAMS:
+ R1=35
+ R2=0.065
+ C= {Cpar}
+ K1=0.00026
+ K2=0.88
+ K3= {Ind}
+ K4=0.112
+ K5=0.00000959
+ L=0
+ Is=0
+ a=0
+ L_Z0=0
+ L_EL=0
+ L_F0=0E6
+ PkZ=7037.35273
.ends MSS6122-472_imp

*======================================================================
* SPICE Model generated by Coilcraft
* Coilcraft Part Number : MSS6122-562
* Inductance = 5.6uH
*======================================================================
* Model Parameters:
*   Valid Frequency Range = 0.1MHz-70MHz
*   Ambient Temperature = 25 degC
*   Inductor Frequency Model
*   Use model for Frequency Domain simulations
*======================================================================
.subckt MSS6122-562_freq port1 port2 PARAMS: Cpar=1.27pF Ind=5.6uH
X1 port1 port2 Model1A PARAMS:
+ R1=25
+ R2=0.083
+ C= {Cpar}
+ K1=0.00105
+ K2=1.02
+ K3= {Ind}
+ K4=0.191
+ K5=0.00000928
+ L=0
+ Is=0
+ a=0
+ L_Z0=0
+ L_EL=0
+ L_F0=0E6
+ PkZ=7739.14656
.ends MSS6122-562_freq

*======================================================================
* SPICE Model generated by Coilcraft
* Coilcraft Part Number : MSS6122-562
* Inductance = 5.6uH
*======================================================================
* Model Parameters:
*   Valid Frequency Range = 0.1MHz-70MHz
*   Ambient Temperature = 25 degC
*   Inductor Impedance Model
*   Use model for Time Domain simulations
*======================================================================
.subckt MSS6122-562_imp port1 port2 PARAMS: Cpar=1.00pF Ind=5.6uH
X1 port1 port2 Model1D PARAMS:
+ R1=25
+ R2=0.083
+ C= {Cpar}
+ K1=0.00105
+ K2=1.02
+ K3= {Ind}
+ K4=0.191
+ K5=0.00000928
+ L=0
+ Is=0
+ a=0
+ L_Z0=0
+ L_EL=0
+ L_F0=0E6
+ PkZ=7739.14656
.ends MSS6122-562_imp

*======================================================================
* SPICE Model generated by Coilcraft
* Coilcraft Part Number : MSS6122-682
* Inductance = 6.8uH
*======================================================================
* Model Parameters:
*   Valid Frequency Range = 0.1MHz-60MHz
*   Ambient Temperature = 25 degC
*   Inductor Frequency Model
*   Use model for Frequency Domain simulations
*======================================================================
.subckt MSS6122-682_freq port1 port2 PARAMS: Cpar=1.27pF Ind=6.8uH
X1 port1 port2 Model1A PARAMS:
+ R1=49
+ R2=0.1
+ C= {Cpar}
+ K1=0.00000395
+ K2=1.27
+ K3= {Ind}
+ K4=0.163
+ K5=0.00000958
+ L=0
+ Is=0
+ a=0
+ L_Z0=0
+ L_EL=0
+ L_F0=0E6
+ PkZ=8809.67425
.ends MSS6122-682_freq

*======================================================================
* SPICE Model generated by Coilcraft
* Coilcraft Part Number : MSS6122-682
* Inductance = 6.8uH
*======================================================================
* Model Parameters:
*   Valid Frequency Range = 0.1MHz-60MHz
*   Ambient Temperature = 25 degC
*   Inductor Impedance Model
*   Use model for Time Domain simulations
*======================================================================
.subckt MSS6122-682_imp port1 port2 PARAMS: Cpar=1.08pF Ind=6.8uH
X1 port1 port2 Model1D PARAMS:
+ R1=49
+ R2=0.1
+ C= {Cpar}
+ K1=0.00000395
+ K2=1.27
+ K3= {Ind}
+ K4=0.163
+ K5=0.00000958
+ L=0
+ Is=0
+ a=0
+ L_Z0=0
+ L_EL=0
+ L_F0=0E6
+ PkZ=8809.67425
.ends MSS6122-682_imp

*======================================================================
* SPICE Model generated by Coilcraft
* Coilcraft Part Number : MSS6122-822
* Inductance = 8.2uH
*======================================================================
* Model Parameters:
*   Valid Frequency Range = 0.1MHz-50MHz
*   Ambient Temperature = 25 degC
*   Inductor Frequency Model
*   Use model for Frequency Domain simulations
*======================================================================
.subckt MSS6122-822_freq port1 port2 PARAMS: Cpar=1.43pF Ind=8.2uH
X1 port1 port2 Model1A PARAMS:
+ R1=31
+ R2=0.12
+ C= {Cpar}
+ K1=0.00125
+ K2=1.53
+ K3= {Ind}
+ K4=0.213
+ K5=0.00000924
+ L=0
+ Is=0
+ a=0
+ L_Z0=0
+ L_EL=0
+ L_F0=0E6
+ PkZ=9987.64865
.ends MSS6122-822_freq

*======================================================================
* SPICE Model generated by Coilcraft
* Coilcraft Part Number : MSS6122-822
* Inductance = 8.2uH
*======================================================================
* Model Parameters:
*   Valid Frequency Range = 0.1MHz-50MHz
*   Ambient Temperature = 25 degC
*   Inductor Impedance Model
*   Use model for Time Domain simulations
*======================================================================
.subckt MSS6122-822_imp port1 port2 PARAMS: Cpar=1.20pF Ind=8.2uH
X1 port1 port2 Model1D PARAMS:
+ R1=31
+ R2=0.12
+ C= {Cpar}
+ K1=0.00125
+ K2=1.53
+ K3= {Ind}
+ K4=0.213
+ K5=0.00000924
+ L=0
+ Is=0
+ a=0
+ L_Z0=0
+ L_EL=0
+ L_F0=0E6
+ PkZ=9987.64865
.ends MSS6122-822_imp

*======================================================================
* SPICE Model generated by Coilcraft
* Coilcraft Part Number : MSS6122-103
* Inductance = 10uH
*======================================================================
* Model Parameters:
*   Valid Frequency Range = 0.1MHz-50MHz
*   Ambient Temperature = 25 degC
*   Inductor Frequency Model
*   Use model for Frequency Domain simulations
*======================================================================
.subckt MSS6122-103_freq port1 port2 PARAMS: Cpar=1.55pF Ind=10uH
X1 port1 port2 Model1A PARAMS:
+ R1=45
+ R2=0.15
+ C= {Cpar}
+ K1=0.000495
+ K2=1.97
+ K3= {Ind}
+ K4=0.348
+ K5=0.00000972
+ L=0
+ Is=0
+ a=0
+ L_Z0=0
+ L_EL=0
+ L_F0=0E6
+ PkZ=11790.397
.ends MSS6122-103_freq

*======================================================================
* SPICE Model generated by Coilcraft
* Coilcraft Part Number : MSS6122-103
* Inductance = 10uH
*======================================================================
* Model Parameters:
*   Valid Frequency Range = 0.1MHz-50MHz
*   Ambient Temperature = 25 degC
*   Inductor Impedance Model
*   Use model for Time Domain simulations
*======================================================================
.subckt MSS6122-103_imp port1 port2 PARAMS: Cpar=1.23pF Ind=10uH
X1 port1 port2 Model1D PARAMS:
+ R1=45
+ R2=0.15
+ C= {Cpar}
+ K1=0.000495
+ K2=1.97
+ K3= {Ind}
+ K4=0.348
+ K5=0.00000972
+ L=0
+ Is=0
+ a=0
+ L_Z0=0
+ L_EL=0
+ L_F0=0E6
+ PkZ=11790.397
.ends MSS6122-103_imp

*======================================================================
* SPICE Model generated by Coilcraft
* Coilcraft Part Number : MSS6122-123
* Inductance = 12uH
*======================================================================
* Model Parameters:
*   Valid Frequency Range = 0.1MHz-50MHz
*   Ambient Temperature = 25 degC
*   Inductor Frequency Model
*   Use model for Frequency Domain simulations
*======================================================================
.subckt MSS6122-123_freq port1 port2 PARAMS: Cpar=1.18pF Ind=12uH
X1 port1 port2 Model1A PARAMS:
+ R1=71
+ R2=0.176
+ C= {Cpar}
+ K1=0.00014
+ K2=2.39
+ K3= {Ind}
+ K4=0.299
+ K5=0.0000098
+ L=0
+ Is=0
+ a=0
+ L_Z0=0
+ L_EL=0
+ L_F0=0E6
+ PkZ=14265.5146
.ends MSS6122-123_freq

*======================================================================
* SPICE Model generated by Coilcraft
* Coilcraft Part Number : MSS6122-123
* Inductance = 12uH
*======================================================================
* Model Parameters:
*   Valid Frequency Range = 0.1MHz-50MHz
*   Ambient Temperature = 25 degC
*   Inductor Impedance Model
*   Use model for Time Domain simulations
*======================================================================
.subckt MSS6122-123_imp port1 port2 PARAMS: Cpar=1.00pF Ind=12uH
X1 port1 port2 Model1D PARAMS:
+ R1=71
+ R2=0.176
+ C= {Cpar}
+ K1=0.00014
+ K2=2.39
+ K3= {Ind}
+ K4=0.299
+ K5=0.0000098
+ L=0
+ Is=0
+ a=0
+ L_Z0=0
+ L_EL=0
+ L_F0=0E6
+ PkZ=14265.5146
.ends MSS6122-123_imp

*======================================================================
* SPICE Model generated by Coilcraft
* Coilcraft Part Number : MSS6122-153
* Inductance = 15uH
*======================================================================
* Model Parameters:
*   Valid Frequency Range = 0.1MHz-40MHz
*   Ambient Temperature = 25 degC
*   Inductor Frequency Model
*   Use model for Frequency Domain simulations
*======================================================================
.subckt MSS6122-153_freq port1 port2 PARAMS: Cpar=1.35pF Ind=15uH
X1 port1 port2 Model1A PARAMS:
+ R1=78
+ R2=0.21
+ C= {Cpar}
+ K1=0.00788
+ K2=3.12
+ K3= {Ind}
+ K4=0.401
+ K5=0.00000816
+ L=0
+ Is=0
+ a=0
+ L_Z0=0
+ L_EL=0
+ L_F0=0E6
+ PkZ=15336.3603
.ends MSS6122-153_freq

*======================================================================
* SPICE Model generated by Coilcraft
* Coilcraft Part Number : MSS6122-153
* Inductance = 15uH
*======================================================================
* Model Parameters:
*   Valid Frequency Range = 0.1MHz-40MHz
*   Ambient Temperature = 25 degC
*   Inductor Impedance Model
*   Use model for Time Domain simulations
*======================================================================
.subckt MSS6122-153_imp port1 port2 PARAMS: Cpar=1.15pF Ind=15uH
X1 port1 port2 Model1D PARAMS:
+ R1=78
+ R2=0.21
+ C= {Cpar}
+ K1=0.00788
+ K2=3.12
+ K3= {Ind}
+ K4=0.401
+ K5=0.00000816
+ L=0
+ Is=0
+ a=0
+ L_Z0=0
+ L_EL=0
+ L_F0=0E6
+ PkZ=15336.3603
.ends MSS6122-153_imp

*======================================================================
* SPICE Model generated by Coilcraft
* Coilcraft Part Number : MSS6122-183
* Inductance = 18uH
*======================================================================
* Model Parameters:
*   Valid Frequency Range = 0.1MHz-30MHz
*   Ambient Temperature = 25 degC
*   Inductor Frequency Model
*   Use model for Frequency Domain simulations
*======================================================================
.subckt MSS6122-183_freq port1 port2 PARAMS: Cpar=1.63pF Ind=18uH
X1 port1 port2 Model1A PARAMS:
+ R1=65
+ R2=0.28
+ C= {Cpar}
+ K1=0.00465
+ K2=4.12
+ K3= {Ind}
+ K4=0.356
+ K5=0.00000878
+ L=0
+ Is=0
+ a=0
+ L_Z0=0
+ L_EL=0
+ L_F0=0E6
+ PkZ=18956.8085
.ends MSS6122-183_freq

*======================================================================
* SPICE Model generated by Coilcraft
* Coilcraft Part Number : MSS6122-183
* Inductance = 18uH
*======================================================================
* Model Parameters:
*   Valid Frequency Range = 0.1MHz-30MHz
*   Ambient Temperature = 25 degC
*   Inductor Impedance Model
*   Use model for Time Domain simulations
*======================================================================
.subckt MSS6122-183_imp port1 port2 PARAMS: Cpar=1.45pF Ind=18uH
X1 port1 port2 Model1D PARAMS:
+ R1=65
+ R2=0.28
+ C= {Cpar}
+ K1=0.00465
+ K2=4.12
+ K3= {Ind}
+ K4=0.356
+ K5=0.00000878
+ L=0
+ Is=0
+ a=0
+ L_Z0=0
+ L_EL=0
+ L_F0=0E6
+ PkZ=18956.8085
.ends MSS6122-183_imp

*======================================================================
* SPICE Model generated by Coilcraft
* Coilcraft Part Number : MSS6122-223
* Inductance = 22uH
*======================================================================
* Model Parameters:
*   Valid Frequency Range = 0.1MHz-30MHz
*   Ambient Temperature = 25 degC
*   Inductor Frequency Model
*   Use model for Frequency Domain simulations
*======================================================================
.subckt MSS6122-223_freq port1 port2 PARAMS: Cpar=1.66pF Ind=22uH
X1 port1 port2 Model1A PARAMS:
+ R1=54
+ R2=0.31
+ C= {Cpar}
+ K1=0.019
+ K2=5
+ K3= {Ind}
+ K4=0.48
+ K5=0.00000697
+ L=0
+ Is=0
+ a=0
+ L_Z0=0
+ L_EL=0
+ L_F0=0E6
+ PkZ=19614.3012
.ends MSS6122-223_freq

*======================================================================
* SPICE Model generated by Coilcraft
* Coilcraft Part Number : MSS6122-223
* Inductance = 22uH
*======================================================================
* Model Parameters:
*   Valid Frequency Range = 0.1MHz-30MHz
*   Ambient Temperature = 25 degC
*   Inductor Impedance Model
*   Use model for Time Domain simulations
*======================================================================
.subckt MSS6122-223_imp port1 port2 PARAMS: Cpar=1.47pF Ind=22uH
X1 port1 port2 Model1D PARAMS:
+ R1=54
+ R2=0.31
+ C= {Cpar}
+ K1=0.019
+ K2=5
+ K3= {Ind}
+ K4=0.48
+ K5=0.00000697
+ L=0
+ Is=0
+ a=0
+ L_Z0=0
+ L_EL=0
+ L_F0=0E6
+ PkZ=19614.3012
.ends MSS6122-223_imp

*======================================================================
* SPICE Model generated by Coilcraft
* Coilcraft Part Number : MSS6122-273
* Inductance = 27uH
*======================================================================
* Model Parameters:
*   Valid Frequency Range = 0.1MHz-30MHz
*   Ambient Temperature = 25 degC
*   Inductor Frequency Model
*   Use model for Frequency Domain simulations
*======================================================================
.subckt MSS6122-273_freq port1 port2 PARAMS: Cpar=1.63pF Ind=27uH
X1 port1 port2 Model1A PARAMS:
+ R1=60
+ R2=0.35
+ C= {Cpar}
+ K1=0.00075
+ K2=5.44
+ K3= {Ind}
+ K4=0.718
+ K5=0.00000975
+ L=0
+ Is=0
+ a=0
+ L_Z0=0
+ L_EL=0
+ L_F0=0E6
+ PkZ=24630.2002
.ends MSS6122-273_freq

*======================================================================
* SPICE Model generated by Coilcraft
* Coilcraft Part Number : MSS6122-273
* Inductance = 27uH
*======================================================================
* Model Parameters:
*   Valid Frequency Range = 0.1MHz-30MHz
*   Ambient Temperature = 25 degC
*   Inductor Impedance Model
*   Use model for Time Domain simulations
*======================================================================
.subckt MSS6122-273_imp port1 port2 PARAMS: Cpar=1.39pF Ind=27uH
X1 port1 port2 Model1D PARAMS:
+ R1=60
+ R2=0.35
+ C= {Cpar}
+ K1=0.00075
+ K2=5.44
+ K3= {Ind}
+ K4=0.718
+ K5=0.00000975
+ L=0
+ Is=0
+ a=0
+ L_Z0=0
+ L_EL=0
+ L_F0=0E6
+ PkZ=24630.2002
.ends MSS6122-273_imp

*======================================================================
* SPICE Model generated by Coilcraft
* Coilcraft Part Number : MSS6122-333
* Inductance = 33uH
*======================================================================
* Model Parameters:
*   Valid Frequency Range = 0.1MHz-30MHz
*   Ambient Temperature = 25 degC
*   Inductor Frequency Model
*   Use model for Frequency Domain simulations
*======================================================================
.subckt MSS6122-333_freq port1 port2 PARAMS: Cpar=1.55pF Ind=33uH
X1 port1 port2 Model1A PARAMS:
+ R1=20
+ R2=0.46
+ C= {Cpar}
+ K1=0.001
+ K2=5.8
+ K3= {Ind}
+ K4=0.84
+ K5=0.00000971
+ L=0
+ Is=0
+ a=0
+ L_Z0=0
+ L_EL=0
+ L_F0=0E6
+ PkZ=27331.7767
.ends MSS6122-333_freq

*======================================================================
* SPICE Model generated by Coilcraft
* Coilcraft Part Number : MSS6122-333
* Inductance = 33uH
*======================================================================
* Model Parameters:
*   Valid Frequency Range = 0.1MHz-30MHz
*   Ambient Temperature = 25 degC
*   Inductor Impedance Model
*   Use model for Time Domain simulations
*======================================================================
.subckt MSS6122-333_imp port1 port2 PARAMS: Cpar=1.34pF Ind=33uH
X1 port1 port2 Model1D PARAMS:
+ R1=20
+ R2=0.46
+ C= {Cpar}
+ K1=0.001
+ K2=5.8
+ K3= {Ind}
+ K4=0.84
+ K5=0.00000971
+ L=0
+ Is=0
+ a=0
+ L_Z0=0
+ L_EL=0
+ L_F0=0E6
+ PkZ=27331.7767
.ends MSS6122-333_imp

*======================================================================
* SPICE Model generated by Coilcraft
* Coilcraft Part Number : MSS6122-393
* Inductance = 39uH
*======================================================================
* Model Parameters:
*   Valid Frequency Range = 0.1MHz-25MHz
*   Ambient Temperature = 25 degC
*   Inductor Frequency Model
*   Use model for Frequency Domain simulations
*======================================================================
.subckt MSS6122-393_freq port1 port2 PARAMS: Cpar=1.53pF Ind=39uH
X1 port1 port2 Model1A PARAMS:
+ R1=13
+ R2=0.54
+ C= {Cpar}
+ K1=0.013
+ K2=7.65
+ K3= {Ind}
+ K4=0.8
+ K5=0.00000838
+ L=0
+ Is=0
+ a=0
+ L_Z0=0
+ L_EL=0
+ L_F0=0E6
+ PkZ=32005.9413
.ends MSS6122-393_freq

*======================================================================
* SPICE Model generated by Coilcraft
* Coilcraft Part Number : MSS6122-393
* Inductance = 39uH
*======================================================================
* Model Parameters:
*   Valid Frequency Range = 0.1MHz-25MHz
*   Ambient Temperature = 25 degC
*   Inductor Impedance Model
*   Use model for Time Domain simulations
*======================================================================
.subckt MSS6122-393_imp port1 port2 PARAMS: Cpar=1.37pF Ind=39uH
X1 port1 port2 Model1D PARAMS:
+ R1=13
+ R2=0.54
+ C= {Cpar}
+ K1=0.013
+ K2=7.65
+ K3= {Ind}
+ K4=0.8
+ K5=0.00000838
+ L=0
+ Is=0
+ a=0
+ L_Z0=0
+ L_EL=0
+ L_F0=0E6
+ PkZ=32005.9413
.ends MSS6122-393_imp

*======================================================================
* SPICE Model generated by Coilcraft
* Coilcraft Part Number : MSS6122-473
* Inductance = 47uH
*======================================================================
* Model Parameters:
*   Valid Frequency Range = 0.1MHz-20MHz
*   Ambient Temperature = 25 degC
*   Inductor Frequency Model
*   Use model for Frequency Domain simulations
*======================================================================
.subckt MSS6122-473_freq port1 port2 PARAMS: Cpar=1.58pF Ind=47uH
X1 port1 port2 Model1A PARAMS:
+ R1=66
+ R2=0.68
+ C= {Cpar}
+ K1=0.00107
+ K2=9.5
+ K3= {Ind}
+ K4=1.1
+ K5=0.00000976
+ L=0
+ Is=0
+ a=0
+ L_Z0=0
+ L_EL=0
+ L_F0=0E6
+ PkZ=37846.338
.ends MSS6122-473_freq

*======================================================================
* SPICE Model generated by Coilcraft
* Coilcraft Part Number : MSS6122-473
* Inductance = 47uH
*======================================================================
* Model Parameters:
*   Valid Frequency Range = 0.1MHz-20MHz
*   Ambient Temperature = 25 degC
*   Inductor Impedance Model
*   Use model for Time Domain simulations
*======================================================================
.subckt MSS6122-473_imp port1 port2 PARAMS: Cpar=1.39pF Ind=47uH
X1 port1 port2 Model1D PARAMS:
+ R1=66
+ R2=0.68
+ C= {Cpar}
+ K1=0.00107
+ K2=9.5
+ K3= {Ind}
+ K4=1.1
+ K5=0.00000976
+ L=0
+ Is=0
+ a=0
+ L_Z0=0
+ L_EL=0
+ L_F0=0E6
+ PkZ=37846.338
.ends MSS6122-473_imp

*======================================================================
* SPICE Model generated by Coilcraft
* Coilcraft Part Number : MSS6122-563
* Inductance = 56uH
*======================================================================
* Model Parameters:
*   Valid Frequency Range = 0.1MHz-20MHz
*   Ambient Temperature = 25 degC
*   Inductor Frequency Model
*   Use model for Frequency Domain simulations
*======================================================================
.subckt MSS6122-563_freq port1 port2 PARAMS: Cpar=1.71pF Ind=56uH
X1 port1 port2 Model1A PARAMS:
+ R1=37
+ R2=0.74
+ C= {Cpar}
+ K1=0.00518
+ K2=11.2
+ K3= {Ind}
+ K4=1.17
+ K5=0.00000943
+ L=0
+ Is=0
+ a=0
+ L_Z0=0
+ L_EL=0
+ L_F0=0E6
+ PkZ=42496.6502
.ends MSS6122-563_freq

*======================================================================
* SPICE Model generated by Coilcraft
* Coilcraft Part Number : MSS6122-563
* Inductance = 56uH
*======================================================================
* Model Parameters:
*   Valid Frequency Range = 0.1MHz-20MHz
*   Ambient Temperature = 25 degC
*   Inductor Impedance Model
*   Use model for Time Domain simulations
*======================================================================
.subckt MSS6122-563_imp port1 port2 PARAMS: Cpar=1.53pF Ind=56uH
X1 port1 port2 Model1D PARAMS:
+ R1=37
+ R2=0.74
+ C= {Cpar}
+ K1=0.00518
+ K2=11.2
+ K3= {Ind}
+ K4=1.17
+ K5=0.00000943
+ L=0
+ Is=0
+ a=0
+ L_Z0=0
+ L_EL=0
+ L_F0=0E6
+ PkZ=42496.6502
.ends MSS6122-563_imp

*======================================================================
* SPICE Model generated by Coilcraft
* Coilcraft Part Number : MSS6122-683
* Inductance = 68uH
*======================================================================
* Model Parameters:
*   Valid Frequency Range = 0.1MHz-20MHz
*   Ambient Temperature = 25 degC
*   Inductor Frequency Model
*   Use model for Frequency Domain simulations
*======================================================================
.subckt MSS6122-683_freq port1 port2 PARAMS: Cpar=1.33pF Ind=68uH
X1 port1 port2 Model1A PARAMS:
+ R1=40
+ R2=1
+ C= {Cpar}
+ K1=0.00246
+ K2=13
+ K3= {Ind}
+ K4=1.66
+ K5=0.0000097
+ L=0
+ Is=0
+ a=0
+ L_Z0=0
+ L_EL=0
+ L_F0=0E6
+ PkZ=51764.7301
.ends MSS6122-683_freq

*======================================================================
* SPICE Model generated by Coilcraft
* Coilcraft Part Number : MSS6122-683
* Inductance = 68uH
*======================================================================
* Model Parameters:
*   Valid Frequency Range = 0.1MHz-20MHz
*   Ambient Temperature = 25 degC
*   Inductor Impedance Model
*   Use model for Time Domain simulations
*======================================================================
.subckt MSS6122-683_imp port1 port2 PARAMS: Cpar=1.16pF Ind=68uH
X1 port1 port2 Model1D PARAMS:
+ R1=40
+ R2=1
+ C= {Cpar}
+ K1=0.00246
+ K2=13
+ K3= {Ind}
+ K4=1.66
+ K5=0.0000097
+ L=0
+ Is=0
+ a=0
+ L_Z0=0
+ L_EL=0
+ L_F0=0E6
+ PkZ=51764.7301
.ends MSS6122-683_imp

*======================================================================
* SPICE Model generated by Coilcraft
* Coilcraft Part Number : MSS6122-823
* Inductance = 82uH
*======================================================================
* Model Parameters:
*   Valid Frequency Range = 0.1MHz-20MHz
*   Ambient Temperature = 25 degC
*   Inductor Frequency Model
*   Use model for Frequency Domain simulations
*======================================================================
.subckt MSS6122-823_freq port1 port2 PARAMS: Cpar=1.41pF Ind=82uH
X1 port1 port2 Model1A PARAMS:
+ R1=13
+ R2=1.2
+ C= {Cpar}
+ K1=0.03
+ K2=17.4
+ K3= {Ind}
+ K4=2.02
+ K5=0.00000856
+ L=0
+ Is=0
+ a=0
+ L_Z0=0
+ L_EL=0
+ L_F0=0E6
+ PkZ=58617.2056
.ends MSS6122-823_freq

*======================================================================
* SPICE Model generated by Coilcraft
* Coilcraft Part Number : MSS6122-823
* Inductance = 82uH
*======================================================================
* Model Parameters:
*   Valid Frequency Range = 0.1MHz-20MHz
*   Ambient Temperature = 25 degC
*   Inductor Impedance Model
*   Use model for Time Domain simulations
*======================================================================
.subckt MSS6122-823_imp port1 port2 PARAMS: Cpar=1.24pF Ind=82uH
X1 port1 port2 Model1D PARAMS:
+ R1=13
+ R2=1.2
+ C= {Cpar}
+ K1=0.03
+ K2=17.4
+ K3= {Ind}
+ K4=2.02
+ K5=0.00000856
+ L=0
+ Is=0
+ a=0
+ L_Z0=0
+ L_EL=0
+ L_F0=0E6
+ PkZ=58617.2056
.ends MSS6122-823_imp

*======================================================================
* SPICE Model generated by Coilcraft
* Coilcraft Part Number : MSS6122-104
* Inductance = 100uH
*======================================================================
* Model Parameters:
*   Valid Frequency Range = 0.1MHz-20MHz
*   Ambient Temperature = 25 degC
*   Inductor Frequency Model
*   Use model for Frequency Domain simulations
*======================================================================
.subckt MSS6122-104_freq port1 port2 PARAMS: Cpar=1.3pF Ind=100uH
X1 port1 port2 Model1A PARAMS:
+ R1=82
+ R2=1.37
+ C= {Cpar}
+ K1=0.0104
+ K2=17.4
+ K3= {Ind}
+ K4=2.34
+ K5=0.00000936
+ L=0
+ Is=0
+ a=0
+ L_Z0=0
+ L_EL=0
+ L_F0=0E6
+ PkZ=59818.0863
.ends MSS6122-104_freq

*======================================================================
* SPICE Model generated by Coilcraft
* Coilcraft Part Number : MSS6122-104
* Inductance = 100uH
*======================================================================
* Model Parameters:
*   Valid Frequency Range = 0.1MHz-20MHz
*   Ambient Temperature = 25 degC
*   Inductor Impedance Model
*   Use model for Time Domain simulations
*======================================================================
.subckt MSS6122-104_imp port1 port2 PARAMS: Cpar=1.15pF Ind=100uH
X1 port1 port2 Model1D PARAMS:
+ R1=82
+ R2=1.37
+ C= {Cpar}
+ K1=0.0104
+ K2=17.4
+ K3= {Ind}
+ K4=2.34
+ K5=0.00000936
+ L=0
+ Is=0
+ a=0
+ L_Z0=0
+ L_EL=0
+ L_F0=0E6
+ PkZ=59818.0863
.ends MSS6122-104_imp

*======================================================================
* SPICE Model generated by Coilcraft
* Coilcraft Impedance Inductor Model
*======================================================================
* Model Parameters:
*   Valid Frequency Range Varies by Inductor
*   Ambient Temperature = 25 degC
*   Time Domain Inductor Impedance Model
*======================================================================
.subckt Model1D Lin Lout PARAMS:
+ R1=1
+ R2=1
+ C=1
+ K3=1
+ PkZ=1
R2 Lin N001 {R2}
R3 N001 Lout {PkZ}
C1 N001 N002 {C}
R1 N002 Lout {R1}
L1 N001 Lout {K3}
.ends Model1D

*======================================================================
* SPICE Model generated by Coilcraft
* Coilcraft Power Inductor Model
*======================================================================
* Model Parameters:
*   Valid Frequency Range Varies by Inductor
*   Ambient Temperature = 25 degC
*   DC Bias Current = 0 A
*   Frequency Dependent Inductor Model
*======================================================================
.subckt Model1A Lin Lout PARAMS:
+ R1=1
+ R2=1
+ C=1
+ K1=1
+ K2=1
+ K3=1
+ K4=1
+ K5=1
R2 N001 Lin {R2}
R1 Lout N002 {R1}
C1 N002 N001 {C}
G_Rvar2 N001 Lout LAPLACE { V(N001, Lout) } {1/K2/(-S*S/4/PI^2)^0.25}
G_Rvar1 N001 N003 LAPLACE { V(N001, N003) } {1/K1/(-S*S/4/PI^2)^0.25}
G_Lvar N003 Lout  LAPLACE { V(N003, Lout) } {1/(S*1e-6*({K3*1e6}-({K4}*LOG({K5}*(sqrt(-S*S)/(2*pi))))))}
*This large resistance to ground has been added to prevent a floating node error
R3 N003 0 100Meg
.ends Model1A


.subckt Coilcraft_Inductor Lin Lout
R1 Lout Lin 100Meg
.ends Coilcraft_Inductor
