*======================================================================
* SPICE Model generated by Coilcraft
* Coilcraft Part Number : MSS6132-472
* Inductance = 4.7uH
*======================================================================
* Model Parameters:
*   Valid Frequency Range = 0.1MHz-100MHz
*   Ambient Temperature = 25 degC
*   Inductor Frequency Model
*   Use model for Frequency Domain simulations
*======================================================================
.subckt MSS6132-472_freq port1 port2 PARAMS: Cpar=1.48pF Ind=4.7uH
X1 port1 port2 Model1A PARAMS:
+ R1=25
+ R2=0.056
+ C= {Cpar}
+ K1=0.00009
+ K2=0.83
+ K3= {Ind}
+ K4=0.084
+ K5=0.00000982
+ L=0
+ Is=0
+ a=0
+ L_Z0=0
+ L_EL=0
+ L_F0=0E6
+ PkZ=6265.22914
.ends MSS6132-472_freq

*======================================================================
* SPICE Model generated by Coilcraft
* Coilcraft Part Number : MSS6132-472
* Inductance = 4.7uH
*======================================================================
* Model Parameters:
*   Valid Frequency Range = 0.1MHz-100MHz
*   Ambient Temperature = 25 degC
*   Inductor Impedance Model
*   Use model for Time Domain simulations
*======================================================================
.subckt MSS6132-472_imp port1 port2 PARAMS: Cpar=1.31pF Ind=4.7uH
X1 port1 port2 Model1D PARAMS:
+ R1=25
+ R2=0.056
+ C= {Cpar}
+ K1=0.00009
+ K2=0.83
+ K3= {Ind}
+ K4=0.084
+ K5=0.00000982
+ L=0
+ Is=0
+ a=0
+ L_Z0=0
+ L_EL=0
+ L_F0=0E6
+ PkZ=6265.22914
.ends MSS6132-472_imp

*======================================================================
* SPICE Model generated by Coilcraft
* Coilcraft Part Number : MSS6132-562
* Inductance = 5.6uH
*======================================================================
* Model Parameters:
*   Valid Frequency Range = 0.1MHz-100MHz
*   Ambient Temperature = 25 degC
*   Inductor Frequency Model
*   Use model for Frequency Domain simulations
*======================================================================
.subckt MSS6132-562_freq port1 port2 PARAMS: Cpar=1.58pF Ind=5.6uH
X1 port1 port2 Model1A PARAMS:
+ R1=25
+ R2=0.06
+ C= {Cpar}
+ K1=0.00032
+ K2=1.05
+ K3= {Ind}
+ K4=0.068
+ K5=0.0000094
+ L=0
+ Is=0
+ a=0
+ L_Z0=0
+ L_EL=0
+ L_F0=0E6
+ PkZ=7351.54002
.ends MSS6132-562_freq

*======================================================================
* SPICE Model generated by Coilcraft
* Coilcraft Part Number : MSS6132-562
* Inductance = 5.6uH
*======================================================================
* Model Parameters:
*   Valid Frequency Range = 0.1MHz-100MHz
*   Ambient Temperature = 25 degC
*   Inductor Impedance Model
*   Use model for Time Domain simulations
*======================================================================
.subckt MSS6132-562_imp port1 port2 PARAMS: Cpar=1.46pF Ind=5.6uH
X1 port1 port2 Model1D PARAMS:
+ R1=25
+ R2=0.06
+ C= {Cpar}
+ K1=0.00032
+ K2=1.05
+ K3= {Ind}
+ K4=0.068
+ K5=0.0000094
+ L=0
+ Is=0
+ a=0
+ L_Z0=0
+ L_EL=0
+ L_F0=0E6
+ PkZ=7351.54002
.ends MSS6132-562_imp

*======================================================================
* SPICE Model generated by Coilcraft
* Coilcraft Part Number : MSS6132-682
* Inductance = 6.8uH
*======================================================================
* Model Parameters:
*   Valid Frequency Range = 0.1MHz-100MHz
*   Ambient Temperature = 25 degC
*   Inductor Frequency Model
*   Use model for Frequency Domain simulations
*======================================================================
.subckt MSS6132-682_freq port1 port2 PARAMS: Cpar=1.56pF Ind=6.8uH
X1 port1 port2 Model1A PARAMS:
+ R1=30
+ R2=0.065
+ C= {Cpar}
+ K1=0.00047
+ K2=1.35
+ K3= {Ind}
+ K4=0.11
+ K5=0.00000956
+ L=0
+ Is=0
+ a=0
+ L_Z0=0
+ L_EL=0
+ L_F0=0E6
+ PkZ=8950.2202
.ends MSS6132-682_freq

*======================================================================
* SPICE Model generated by Coilcraft
* Coilcraft Part Number : MSS6132-682
* Inductance = 6.8uH
*======================================================================
* Model Parameters:
*   Valid Frequency Range = 0.1MHz-100MHz
*   Ambient Temperature = 25 degC
*   Inductor Impedance Model
*   Use model for Time Domain simulations
*======================================================================
.subckt MSS6132-682_imp port1 port2 PARAMS: Cpar=1.40pF Ind=6.8uH
X1 port1 port2 Model1D PARAMS:
+ R1=30
+ R2=0.065
+ C= {Cpar}
+ K1=0.00047
+ K2=1.35
+ K3= {Ind}
+ K4=0.11
+ K5=0.00000956
+ L=0
+ Is=0
+ a=0
+ L_Z0=0
+ L_EL=0
+ L_F0=0E6
+ PkZ=8950.2202
.ends MSS6132-682_imp

*======================================================================
* SPICE Model generated by Coilcraft
* Coilcraft Part Number : MSS6132-822
* Inductance = 8.2uH
*======================================================================
* Model Parameters:
*   Valid Frequency Range = 0.1MHz-80MHz
*   Ambient Temperature = 25 degC
*   Inductor Frequency Model
*   Use model for Frequency Domain simulations
*======================================================================
.subckt MSS6132-822_freq port1 port2 PARAMS: Cpar=2.21pF Ind=8.2uH
X1 port1 port2 Model1A PARAMS:
+ R1=28
+ R2=0.07
+ C= {Cpar}
+ K1=0.001
+ K2=1.87
+ K3= {Ind}
+ K4=0.195
+ K5=0.00000952
+ L=0
+ Is=0
+ a=0
+ L_Z0=0
+ L_EL=0
+ L_F0=0E6
+ PkZ=10525.8567
.ends MSS6132-822_freq

*======================================================================
* SPICE Model generated by Coilcraft
* Coilcraft Part Number : MSS6132-822
* Inductance = 8.2uH
*======================================================================
* Model Parameters:
*   Valid Frequency Range = 0.1MHz-80MHz
*   Ambient Temperature = 25 degC
*   Inductor Impedance Model
*   Use model for Time Domain simulations
*======================================================================
.subckt MSS6132-822_imp port1 port2 PARAMS: Cpar=1.90pF Ind=8.2uH
X1 port1 port2 Model1D PARAMS:
+ R1=28
+ R2=0.07
+ C= {Cpar}
+ K1=0.001
+ K2=1.87
+ K3= {Ind}
+ K4=0.195
+ K5=0.00000952
+ L=0
+ Is=0
+ a=0
+ L_Z0=0
+ L_EL=0
+ L_F0=0E6
+ PkZ=10525.8567
.ends MSS6132-822_imp

*======================================================================
* SPICE Model generated by Coilcraft
* Coilcraft Part Number : MSS6132-103
* Inductance = 10uH
*======================================================================
* Model Parameters:
*   Valid Frequency Range = 0.1MHz-70MHz
*   Ambient Temperature = 25 degC
*   Inductor Frequency Model
*   Use model for Frequency Domain simulations
*======================================================================
.subckt MSS6132-103_freq port1 port2 PARAMS: Cpar=2.13pF Ind=10uH
X1 port1 port2 Model1A PARAMS:
+ R1=26
+ R2=0.085
+ C= {Cpar}
+ K1=0.0013
+ K2=2
+ K3= {Ind}
+ K4=0.285
+ K5=0.00000952
+ L=0
+ Is=0
+ a=0
+ L_Z0=0
+ L_EL=0
+ L_F0=0E6
+ PkZ=11100.6885
.ends MSS6132-103_freq

*======================================================================
* SPICE Model generated by Coilcraft
* Coilcraft Part Number : MSS6132-103
* Inductance = 10uH
*======================================================================
* Model Parameters:
*   Valid Frequency Range = 0.1MHz-70MHz
*   Ambient Temperature = 25 degC
*   Inductor Impedance Model
*   Use model for Time Domain simulations
*======================================================================
.subckt MSS6132-103_imp port1 port2 PARAMS: Cpar=1.78pF Ind=10uH
X1 port1 port2 Model1D PARAMS:
+ R1=26
+ R2=0.085
+ C= {Cpar}
+ K1=0.0013
+ K2=2
+ K3= {Ind}
+ K4=0.285
+ K5=0.00000952
+ L=0
+ Is=0
+ a=0
+ L_Z0=0
+ L_EL=0
+ L_F0=0E6
+ PkZ=11100.6885
.ends MSS6132-103_imp

*======================================================================
* SPICE Model generated by Coilcraft
* Coilcraft Part Number : MSS6132-123
* Inductance = 12uH
*======================================================================
* Model Parameters:
*   Valid Frequency Range = 0.1MHz-60MHz
*   Ambient Temperature = 25 degC
*   Inductor Frequency Model
*   Use model for Frequency Domain simulations
*======================================================================
.subckt MSS6132-123_freq port1 port2 PARAMS: Cpar=1.96pF Ind=12uH
X1 port1 port2 Model1A PARAMS:
+ R1=20
+ R2=0.11
+ C= {Cpar}
+ K1=0.00013
+ K2=2.3
+ K3= {Ind}
+ K4=0.285
+ K5=0.0000099
+ L=0
+ Is=0
+ a=0
+ L_Z0=0
+ L_EL=0
+ L_F0=0E6
+ PkZ=12973.1405
.ends MSS6132-123_freq

*======================================================================
* SPICE Model generated by Coilcraft
* Coilcraft Part Number : MSS6132-123
* Inductance = 12uH
*======================================================================
* Model Parameters:
*   Valid Frequency Range = 0.1MHz-60MHz
*   Ambient Temperature = 25 degC
*   Inductor Impedance Model
*   Use model for Time Domain simulations
*======================================================================
.subckt MSS6132-123_imp port1 port2 PARAMS: Cpar=1.69pF Ind=12uH
X1 port1 port2 Model1D PARAMS:
+ R1=20
+ R2=0.11
+ C= {Cpar}
+ K1=0.00013
+ K2=2.3
+ K3= {Ind}
+ K4=0.285
+ K5=0.0000099
+ L=0
+ Is=0
+ a=0
+ L_Z0=0
+ L_EL=0
+ L_F0=0E6
+ PkZ=12973.1405
.ends MSS6132-123_imp

*======================================================================
* SPICE Model generated by Coilcraft
* Coilcraft Part Number : MSS6132-153
* Inductance = 15uH
*======================================================================
* Model Parameters:
*   Valid Frequency Range = 0.1MHz-60MHz
*   Ambient Temperature = 25 degC
*   Inductor Frequency Model
*   Use model for Frequency Domain simulations
*======================================================================
.subckt MSS6132-153_freq port1 port2 PARAMS: Cpar=2.1pF Ind=15uH
X1 port1 port2 Model1A PARAMS:
+ R1=34
+ R2=0.135
+ C= {Cpar}
+ K1=0.00026
+ K2=3.12
+ K3= {Ind}
+ K4=0.345
+ K5=0.00000988
+ L=0
+ Is=0
+ a=0
+ L_Z0=0
+ L_EL=0
+ L_F0=0E6
+ PkZ=15664.3375
.ends MSS6132-153_freq

*======================================================================
* SPICE Model generated by Coilcraft
* Coilcraft Part Number : MSS6132-153
* Inductance = 15uH
*======================================================================
* Model Parameters:
*   Valid Frequency Range = 0.1MHz-60MHz
*   Ambient Temperature = 25 degC
*   Inductor Impedance Model
*   Use model for Time Domain simulations
*======================================================================
.subckt MSS6132-153_imp port1 port2 PARAMS: Cpar=1.83pF Ind=15uH
X1 port1 port2 Model1D PARAMS:
+ R1=34
+ R2=0.135
+ C= {Cpar}
+ K1=0.00026
+ K2=3.12
+ K3= {Ind}
+ K4=0.345
+ K5=0.00000988
+ L=0
+ Is=0
+ a=0
+ L_Z0=0
+ L_EL=0
+ L_F0=0E6
+ PkZ=15664.3375
.ends MSS6132-153_imp

*======================================================================
* SPICE Model generated by Coilcraft
* Coilcraft Part Number : MSS6132-183
* Inductance = 18uH
*======================================================================
* Model Parameters:
*   Valid Frequency Range = 0.1MHz-60MHz
*   Ambient Temperature = 25 degC
*   Inductor Frequency Model
*   Use model for Frequency Domain simulations
*======================================================================
.subckt MSS6132-183_freq port1 port2 PARAMS: Cpar=2.15pF Ind=18uH
X1 port1 port2 Model1A PARAMS:
+ R1=40
+ R2=0.16
+ C= {Cpar}
+ K1=0.00014
+ K2=3.54
+ K3= {Ind}
+ K4=0.345
+ K5=0.0000099
+ L=0
+ Is=0
+ a=0
+ L_Z0=0
+ L_EL=0
+ L_F0=0E6
+ PkZ=16737.0314
.ends MSS6132-183_freq

*======================================================================
* SPICE Model generated by Coilcraft
* Coilcraft Part Number : MSS6132-183
* Inductance = 18uH
*======================================================================
* Model Parameters:
*   Valid Frequency Range = 0.1MHz-60MHz
*   Ambient Temperature = 25 degC
*   Inductor Impedance Model
*   Use model for Time Domain simulations
*======================================================================
.subckt MSS6132-183_imp port1 port2 PARAMS: Cpar=1.92pF Ind=18uH
X1 port1 port2 Model1D PARAMS:
+ R1=40
+ R2=0.16
+ C= {Cpar}
+ K1=0.00014
+ K2=3.54
+ K3= {Ind}
+ K4=0.345
+ K5=0.0000099
+ L=0
+ Is=0
+ a=0
+ L_Z0=0
+ L_EL=0
+ L_F0=0E6
+ PkZ=16737.0314
.ends MSS6132-183_imp

*======================================================================
* SPICE Model generated by Coilcraft
* Coilcraft Part Number : MSS6132-223
* Inductance = 22uH
*======================================================================
* Model Parameters:
*   Valid Frequency Range = 0.1MHz-60MHz
*   Ambient Temperature = 25 degC
*   Inductor Frequency Model
*   Use model for Frequency Domain simulations
*======================================================================
.subckt MSS6132-223_freq port1 port2 PARAMS: Cpar=1.78pF Ind=22uH
X1 port1 port2 Model1A PARAMS:
+ R1=29
+ R2=0.19
+ C= {Cpar}
+ K1=0.00022
+ K2=4.05
+ K3= {Ind}
+ K4=0.417
+ K5=0.00000988
+ L=0
+ Is=0
+ a=0
+ L_Z0=0
+ L_EL=0
+ L_F0=0E6
+ PkZ=19861.1519
.ends MSS6132-223_freq

*======================================================================
* SPICE Model generated by Coilcraft
* Coilcraft Part Number : MSS6132-223
* Inductance = 22uH
*======================================================================
* Model Parameters:
*   Valid Frequency Range = 0.1MHz-60MHz
*   Ambient Temperature = 25 degC
*   Inductor Impedance Model
*   Use model for Time Domain simulations
*======================================================================
.subckt MSS6132-223_imp port1 port2 PARAMS: Cpar=1.59pF Ind=22uH
X1 port1 port2 Model1D PARAMS:
+ R1=29
+ R2=0.19
+ C= {Cpar}
+ K1=0.00022
+ K2=4.05
+ K3= {Ind}
+ K4=0.417
+ K5=0.00000988
+ L=0
+ Is=0
+ a=0
+ L_Z0=0
+ L_EL=0
+ L_F0=0E6
+ PkZ=19861.1519
.ends MSS6132-223_imp

*======================================================================
* SPICE Model generated by Coilcraft
* Coilcraft Part Number : MSS6132-273
* Inductance = 27uH
*======================================================================
* Model Parameters:
*   Valid Frequency Range = 0.1MHz-50MHz
*   Ambient Temperature = 25 degC
*   Inductor Frequency Model
*   Use model for Frequency Domain simulations
*======================================================================
.subckt MSS6132-273_freq port1 port2 PARAMS: Cpar=2.42pF Ind=27uH
X1 port1 port2 Model1A PARAMS:
+ R1=35
+ R2=0.235
+ C= {Cpar}
+ K1=0.000778
+ K2=5.9
+ K3= {Ind}
+ K4=0.45
+ K5=0.00000982
+ L=0
+ Is=0
+ a=0
+ L_Z0=0
+ L_EL=0
+ L_F0=0E6
+ PkZ=24320.8145
.ends MSS6132-273_freq

*======================================================================
* SPICE Model generated by Coilcraft
* Coilcraft Part Number : MSS6132-273
* Inductance = 27uH
*======================================================================
* Model Parameters:
*   Valid Frequency Range = 0.1MHz-50MHz
*   Ambient Temperature = 25 degC
*   Inductor Impedance Model
*   Use model for Time Domain simulations
*======================================================================
.subckt MSS6132-273_imp port1 port2 PARAMS: Cpar=2.21pF Ind=27uH
X1 port1 port2 Model1D PARAMS:
+ R1=35
+ R2=0.235
+ C= {Cpar}
+ K1=0.000778
+ K2=5.9
+ K3= {Ind}
+ K4=0.45
+ K5=0.00000982
+ L=0
+ Is=0
+ a=0
+ L_Z0=0
+ L_EL=0
+ L_F0=0E6
+ PkZ=24320.8145
.ends MSS6132-273_imp

*======================================================================
* SPICE Model generated by Coilcraft
* Coilcraft Part Number : MSS6132-333
* Inductance = 33uH
*======================================================================
* Model Parameters:
*   Valid Frequency Range = 0.1MHz-50MHz
*   Ambient Temperature = 25 degC
*   Inductor Frequency Model
*   Use model for Frequency Domain simulations
*======================================================================
.subckt MSS6132-333_freq port1 port2 PARAMS: Cpar=2.17pF Ind=33uH
X1 port1 port2 Model1A PARAMS:
+ R1=44
+ R2=0.31
+ C= {Cpar}
+ K1=0.00037
+ K2=7
+ K3= {Ind}
+ K4=0.45
+ K5=0.00000988
+ L=0
+ Is=0
+ a=0
+ L_Z0=0
+ L_EL=0
+ L_F0=0E6
+ PkZ=28114.7046
.ends MSS6132-333_freq

*======================================================================
* SPICE Model generated by Coilcraft
* Coilcraft Part Number : MSS6132-333
* Inductance = 33uH
*======================================================================
* Model Parameters:
*   Valid Frequency Range = 0.1MHz-50MHz
*   Ambient Temperature = 25 degC
*   Inductor Impedance Model
*   Use model for Time Domain simulations
*======================================================================
.subckt MSS6132-333_imp port1 port2 PARAMS: Cpar=2.02pF Ind=33uH
X1 port1 port2 Model1D PARAMS:
+ R1=44
+ R2=0.31
+ C= {Cpar}
+ K1=0.00037
+ K2=7
+ K3= {Ind}
+ K4=0.45
+ K5=0.00000988
+ L=0
+ Is=0
+ a=0
+ L_Z0=0
+ L_EL=0
+ L_F0=0E6
+ PkZ=28114.7046
.ends MSS6132-333_imp

*======================================================================
* SPICE Model generated by Coilcraft
* Coilcraft Part Number : MSS6132-393
* Inductance = 39uH
*======================================================================
* Model Parameters:
*   Valid Frequency Range = 0.1MHz-40MHz
*   Ambient Temperature = 25 degC
*   Inductor Frequency Model
*   Use model for Frequency Domain simulations
*======================================================================
.subckt MSS6132-393_freq port1 port2 PARAMS: Cpar=2.07pF Ind=39uH
X1 port1 port2 Model1A PARAMS:
+ R1=36
+ R2=0.345
+ C= {Cpar}
+ K1=0.00051
+ K2=7.9
+ K3= {Ind}
+ K4=0.599
+ K5=0.00000987
+ L=0
+ Is=0
+ a=0
+ L_Z0=0
+ L_EL=0
+ L_F0=0E6
+ PkZ=31582.5484
.ends MSS6132-393_freq

*======================================================================
* SPICE Model generated by Coilcraft
* Coilcraft Part Number : MSS6132-393
* Inductance = 39uH
*======================================================================
* Model Parameters:
*   Valid Frequency Range = 0.1MHz-40MHz
*   Ambient Temperature = 25 degC
*   Inductor Impedance Model
*   Use model for Time Domain simulations
*======================================================================
.subckt MSS6132-393_imp port1 port2 PARAMS: Cpar=1.91pF Ind=39uH
X1 port1 port2 Model1D PARAMS:
+ R1=36
+ R2=0.345
+ C= {Cpar}
+ K1=0.00051
+ K2=7.9
+ K3= {Ind}
+ K4=0.599
+ K5=0.00000987
+ L=0
+ Is=0
+ a=0
+ L_Z0=0
+ L_EL=0
+ L_F0=0E6
+ PkZ=31582.5484
.ends MSS6132-393_imp

*======================================================================
* SPICE Model generated by Coilcraft
* Coilcraft Part Number : MSS6132-473
* Inductance = 47uH
*======================================================================
* Model Parameters:
*   Valid Frequency Range = 0.1MHz-40MHz
*   Ambient Temperature = 25 degC
*   Inductor Frequency Model
*   Use model for Frequency Domain simulations
*======================================================================
.subckt MSS6132-473_freq port1 port2 PARAMS: Cpar=2.2pF Ind=47uH
X1 port1 port2 Model1A PARAMS:
+ R1=40
+ R2=0.38
+ C= {Cpar}
+ K1=0.000412
+ K2=9.3
+ K3= {Ind}
+ K4=0.797
+ K5=0.00000991
+ L=0
+ Is=0
+ a=0
+ L_Z0=0
+ L_EL=0
+ L_F0=0E6
+ PkZ=34829.1377
.ends MSS6132-473_freq

*======================================================================
* SPICE Model generated by Coilcraft
* Coilcraft Part Number : MSS6132-473
* Inductance = 47uH
*======================================================================
* Model Parameters:
*   Valid Frequency Range = 0.1MHz-40MHz
*   Ambient Temperature = 25 degC
*   Inductor Impedance Model
*   Use model for Time Domain simulations
*======================================================================
.subckt MSS6132-473_imp port1 port2 PARAMS: Cpar=2.01pF Ind=47uH
X1 port1 port2 Model1D PARAMS:
+ R1=40
+ R2=0.38
+ C= {Cpar}
+ K1=0.000412
+ K2=9.3
+ K3= {Ind}
+ K4=0.797
+ K5=0.00000991
+ L=0
+ Is=0
+ a=0
+ L_Z0=0
+ L_EL=0
+ L_F0=0E6
+ PkZ=34829.1377
.ends MSS6132-473_imp

*======================================================================
* SPICE Model generated by Coilcraft
* Coilcraft Part Number : MSS6132-563
* Inductance = 56uH
*======================================================================
* Model Parameters:
*   Valid Frequency Range = 0.1MHz-30MHz
*   Ambient Temperature = 25 degC
*   Inductor Frequency Model
*   Use model for Frequency Domain simulations
*======================================================================
.subckt MSS6132-563_freq port1 port2 PARAMS: Cpar=2.45pF Ind=56uH
X1 port1 port2 Model1A PARAMS:
+ R1=42
+ R2=0.43
+ C= {Cpar}
+ K1=0.00109
+ K2=11.3
+ K3= {Ind}
+ K4=1.28
+ K5=0.0000099
+ L=0
+ Is=0
+ a=0
+ L_Z0=0
+ L_EL=0
+ L_F0=0E6
+ PkZ=39091.6181
.ends MSS6132-563_freq

*======================================================================
* SPICE Model generated by Coilcraft
* Coilcraft Part Number : MSS6132-563
* Inductance = 56uH
*======================================================================
* Model Parameters:
*   Valid Frequency Range = 0.1MHz-30MHz
*   Ambient Temperature = 25 degC
*   Inductor Impedance Model
*   Use model for Time Domain simulations
*======================================================================
.subckt MSS6132-563_imp port1 port2 PARAMS: Cpar=2.18pF Ind=56uH
X1 port1 port2 Model1D PARAMS:
+ R1=42
+ R2=0.43
+ C= {Cpar}
+ K1=0.00109
+ K2=11.3
+ K3= {Ind}
+ K4=1.28
+ K5=0.0000099
+ L=0
+ Is=0
+ a=0
+ L_Z0=0
+ L_EL=0
+ L_F0=0E6
+ PkZ=39091.6181
.ends MSS6132-563_imp

*======================================================================
* SPICE Model generated by Coilcraft
* Coilcraft Part Number : MSS6132-683
* Inductance = 68uH
*======================================================================
* Model Parameters:
*   Valid Frequency Range = 0.1MHz-30MHz
*   Ambient Temperature = 25 degC
*   Inductor Frequency Model
*   Use model for Frequency Domain simulations
*======================================================================
.subckt MSS6132-683_freq port1 port2 PARAMS: Cpar=3.34pF Ind=68uH
X1 port1 port2 Model1A PARAMS:
+ R1=40
+ R2=0.58
+ C= {Cpar}
+ K1=0.0008
+ K2=14
+ K3= {Ind}
+ K4=0.98
+ K5=0.00000992
+ L=0
+ Is=0
+ a=0
+ L_Z0=0
+ L_EL=0
+ L_F0=0E6
+ PkZ=41933.8244
.ends MSS6132-683_freq

*======================================================================
* SPICE Model generated by Coilcraft
* Coilcraft Part Number : MSS6132-683
* Inductance = 68uH
*======================================================================
* Model Parameters:
*   Valid Frequency Range = 0.1MHz-30MHz
*   Ambient Temperature = 25 degC
*   Inductor Impedance Model
*   Use model for Time Domain simulations
*======================================================================
.subckt MSS6132-683_imp port1 port2 PARAMS: Cpar=3.12pF Ind=68uH
X1 port1 port2 Model1D PARAMS:
+ R1=40
+ R2=0.58
+ C= {Cpar}
+ K1=0.0008
+ K2=14
+ K3= {Ind}
+ K4=0.98
+ K5=0.00000992
+ L=0
+ Is=0
+ a=0
+ L_Z0=0
+ L_EL=0
+ L_F0=0E6
+ PkZ=41933.8244
.ends MSS6132-683_imp

*======================================================================
* SPICE Model generated by Coilcraft
* Coilcraft Part Number : MSS6132-823
* Inductance = 82uH
*======================================================================
* Model Parameters:
*   Valid Frequency Range = 0.1MHz-20MHz
*   Ambient Temperature = 25 degC
*   Inductor Frequency Model
*   Use model for Frequency Domain simulations
*======================================================================
.subckt MSS6132-823_freq port1 port2 PARAMS: Cpar=2.74pF Ind=82uH
X1 port1 port2 Model1A PARAMS:
+ R1=80
+ R2=0.64
+ C= {Cpar}
+ K1=0.0008
+ K2=16.2
+ K3= {Ind}
+ K4=1.3
+ K5=0.00000993
+ L=0
+ Is=0
+ a=0
+ L_Z0=0
+ L_EL=0
+ L_F0=0E6
+ PkZ=46369.4965
.ends MSS6132-823_freq

*======================================================================
* SPICE Model generated by Coilcraft
* Coilcraft Part Number : MSS6132-823
* Inductance = 82uH
*======================================================================
* Model Parameters:
*   Valid Frequency Range = 0.1MHz-20MHz
*   Ambient Temperature = 25 degC
*   Inductor Impedance Model
*   Use model for Time Domain simulations
*======================================================================
.subckt MSS6132-823_imp port1 port2 PARAMS: Cpar=2.54pF Ind=82uH
X1 port1 port2 Model1D PARAMS:
+ R1=80
+ R2=0.64
+ C= {Cpar}
+ K1=0.0008
+ K2=16.2
+ K3= {Ind}
+ K4=1.3
+ K5=0.00000993
+ L=0
+ Is=0
+ a=0
+ L_Z0=0
+ L_EL=0
+ L_F0=0E6
+ PkZ=46369.4965
.ends MSS6132-823_imp

*======================================================================
* SPICE Model generated by Coilcraft
* Coilcraft Part Number : MSS6132-104
* Inductance = 100uH
*======================================================================
* Model Parameters:
*   Valid Frequency Range = 0.1MHz-20MHz
*   Ambient Temperature = 25 degC
*   Inductor Frequency Model
*   Use model for Frequency Domain simulations
*======================================================================
.subckt MSS6132-104_freq port1 port2 PARAMS: Cpar=2.89pF Ind=100uH
X1 port1 port2 Model1A PARAMS:
+ R1=77
+ R2=0.82
+ C= {Cpar}
+ K1=0.00128
+ K2=21.6
+ K3= {Ind}
+ K4=1.28
+ K5=0.00000993
+ L=0
+ Is=0
+ a=0
+ L_Z0=0
+ L_EL=0
+ L_F0=0E6
+ PkZ=57502.9632
.ends MSS6132-104_freq

*======================================================================
* SPICE Model generated by Coilcraft
* Coilcraft Part Number : MSS6132-104
* Inductance = 100uH
*======================================================================
* Model Parameters:
*   Valid Frequency Range = 0.1MHz-20MHz
*   Ambient Temperature = 25 degC
*   Inductor Impedance Model
*   Use model for Time Domain simulations
*======================================================================
.subckt MSS6132-104_imp port1 port2 PARAMS: Cpar=2.72pF Ind=100uH
X1 port1 port2 Model1D PARAMS:
+ R1=77
+ R2=0.82
+ C= {Cpar}
+ K1=0.00128
+ K2=21.6
+ K3= {Ind}
+ K4=1.28
+ K5=0.00000993
+ L=0
+ Is=0
+ a=0
+ L_Z0=0
+ L_EL=0
+ L_F0=0E6
+ PkZ=57502.9632
.ends MSS6132-104_imp

*======================================================================
* SPICE Model generated by Coilcraft
* Coilcraft Impedance Inductor Model
*======================================================================
* Model Parameters:
*   Valid Frequency Range Varies by Inductor
*   Ambient Temperature = 25 degC
*   Time Domain Inductor Impedance Model
*======================================================================
.subckt Model1D Lin Lout PARAMS:
+ R1=1
+ R2=1
+ C=1
+ K3=1
+ PkZ=1
R2 Lin N001 {R2}
R3 N001 Lout {PkZ}
C1 N001 N002 {C}
R1 N002 Lout {R1}
L1 N001 Lout {K3}
.ends Model1D

*======================================================================
* SPICE Model generated by Coilcraft
* Coilcraft Power Inductor Model
*======================================================================
* Model Parameters:
*   Valid Frequency Range Varies by Inductor
*   Ambient Temperature = 25 degC
*   DC Bias Current = 0 A
*   Frequency Dependent Inductor Model
*======================================================================
.subckt Model1A Lin Lout PARAMS:
+ R1=1
+ R2=1
+ C=1
+ K1=1
+ K2=1
+ K3=1
+ K4=1
+ K5=1
R2 N001 Lin {R2}
R1 Lout N002 {R1}
C1 N002 N001 {C}
G_Rvar2 N001 Lout LAPLACE { V(N001, Lout) } {1/K2/(-S*S/4/PI^2)^0.25}
G_Rvar1 N001 N003 LAPLACE { V(N001, N003) } {1/K1/(-S*S/4/PI^2)^0.25}
G_Lvar N003 Lout  LAPLACE { V(N003, Lout) } {1/(S*1e-6*({K3*1e6}-({K4}*LOG({K5}*(sqrt(-S*S)/(2*pi))))))}
*This large resistance to ground has been added to prevent a floating node error
R3 N003 0 100Meg
.ends Model1A


.subckt Coilcraft_Inductor Lin Lout
R1 Lout Lin 100Meg
.ends Coilcraft_Inductor
