*======================================================================
* SPICE Model generated by Coilcraft
* Coilcraft Part Number : MSS7341-332
* Inductance = 3.3uH
*======================================================================
* Model Parameters:
*   Valid Frequency Range = 0.1MHz-100MHz
*   Ambient Temperature = 25 degC
*   Inductor Frequency Model
*   Use model for Frequency Domain simulations
*======================================================================
.subckt MSS7341-332_freq port1 port2 PARAMS: Cpar=1.56pF Ind=3.3uH
X1 port1 port2 Model1A PARAMS:
+ R1=17
+ R2=0.02
+ C= {Cpar}
+ K1=0.000345
+ K2=0.44
+ K3= {Ind}
+ K4=0.084
+ K5=0.0000093
+ L=0
+ Is=0
+ a=0
+ L_Z0=0
+ L_EL=0
+ L_F0=0E6
+ PkZ=3693.4089
.ends MSS7341-332_freq

*======================================================================
* SPICE Model generated by Coilcraft
* Coilcraft Part Number : MSS7341-332
* Inductance = 3.3uH
*======================================================================
* Model Parameters:
*   Valid Frequency Range = 0.1MHz-100MHz
*   Ambient Temperature = 25 degC
*   Inductor Impedance Model
*   Use model for Time Domain simulations
*======================================================================
.subckt MSS7341-332_imp port1 port2 PARAMS: Cpar=1.30pF Ind=3.3uH
X1 port1 port2 Model1D PARAMS:
+ R1=17
+ R2=0.02
+ C= {Cpar}
+ K1=0.000345
+ K2=0.44
+ K3= {Ind}
+ K4=0.084
+ K5=0.0000093
+ L=0
+ Is=0
+ a=0
+ L_Z0=0
+ L_EL=0
+ L_F0=0E6
+ PkZ=3693.4089
.ends MSS7341-332_imp

*======================================================================
* SPICE Model generated by Coilcraft
* Coilcraft Part Number : MSS7341-502
* Inductance = 5uH
*======================================================================
* Model Parameters:
*   Valid Frequency Range = 0.1MHz-90MHz
*   Ambient Temperature = 25 degC
*   Inductor Frequency Model
*   Use model for Frequency Domain simulations
*======================================================================
.subckt MSS7341-502_freq port1 port2 PARAMS: Cpar=1.69pF Ind=5uH
X1 port1 port2 Model1A PARAMS:
+ R1=20
+ R2=0.024
+ C= {Cpar}
+ K1=0.000353
+ K2=0.69
+ K3= {Ind}
+ K4=0.084
+ K5=0.00000926
+ L=0
+ Is=0
+ a=0
+ L_Z0=0
+ L_EL=0
+ L_F0=0E6
+ PkZ=5022.82437
.ends MSS7341-502_freq

*======================================================================
* SPICE Model generated by Coilcraft
* Coilcraft Part Number : MSS7341-502
* Inductance = 5uH
*======================================================================
* Model Parameters:
*   Valid Frequency Range = 0.1MHz-90MHz
*   Ambient Temperature = 25 degC
*   Inductor Impedance Model
*   Use model for Time Domain simulations
*======================================================================
.subckt MSS7341-502_imp port1 port2 PARAMS: Cpar=1.51pF Ind=5uH
X1 port1 port2 Model1D PARAMS:
+ R1=20
+ R2=0.024
+ C= {Cpar}
+ K1=0.000353
+ K2=0.69
+ K3= {Ind}
+ K4=0.084
+ K5=0.00000926
+ L=0
+ Is=0
+ a=0
+ L_Z0=0
+ L_EL=0
+ L_F0=0E6
+ PkZ=5022.82437
.ends MSS7341-502_imp

*======================================================================
* SPICE Model generated by Coilcraft
* Coilcraft Part Number : MSS7341-622
* Inductance = 6.2uH
*======================================================================
* Model Parameters:
*   Valid Frequency Range = 0.1MHz-70MHz
*   Ambient Temperature = 25 degC
*   Inductor Frequency Model
*   Use model for Frequency Domain simulations
*======================================================================
.subckt MSS7341-622_freq port1 port2 PARAMS: Cpar=2.25pF Ind=6.2uH
X1 port1 port2 Model1A PARAMS:
+ R1=26
+ R2=0.027
+ C= {Cpar}
+ K1=0.000492
+ K2=0.888
+ K3= {Ind}
+ K4=0.158
+ K5=0.00000952
+ L=0
+ Is=0
+ a=0
+ L_Z0=0
+ L_EL=0
+ L_F0=0E6
+ PkZ=5615.36729
.ends MSS7341-622_freq

*======================================================================
* SPICE Model generated by Coilcraft
* Coilcraft Part Number : MSS7341-622
* Inductance = 6.2uH
*======================================================================
* Model Parameters:
*   Valid Frequency Range = 0.1MHz-70MHz
*   Ambient Temperature = 25 degC
*   Inductor Impedance Model
*   Use model for Time Domain simulations
*======================================================================
.subckt MSS7341-622_imp port1 port2 PARAMS: Cpar=1.91pF Ind=6.2uH
X1 port1 port2 Model1D PARAMS:
+ R1=26
+ R2=0.027
+ C= {Cpar}
+ K1=0.000492
+ K2=0.888
+ K3= {Ind}
+ K4=0.158
+ K5=0.00000952
+ L=0
+ Is=0
+ a=0
+ L_Z0=0
+ L_EL=0
+ L_F0=0E6
+ PkZ=5615.36729
.ends MSS7341-622_imp

*======================================================================
* SPICE Model generated by Coilcraft
* Coilcraft Part Number : MSS7341-742
* Inductance = 7.4uH
*======================================================================
* Model Parameters:
*   Valid Frequency Range = 0.1MHz-60MHz
*   Ambient Temperature = 25 degC
*   Inductor Frequency Model
*   Use model for Frequency Domain simulations
*======================================================================
.subckt MSS7341-742_freq port1 port2 PARAMS: Cpar=3.17pF Ind=7.4uH
X1 port1 port2 Model1A PARAMS:
+ R1=11
+ R2=0.031
+ C= {Cpar}
+ K1=0.00147
+ K2=1.06
+ K3= {Ind}
+ K4=0.21
+ K5=0.000009
+ L=0
+ Is=0
+ a=0
+ L_Z0=0
+ L_EL=0
+ L_F0=0E6
+ PkZ=5965.09413
.ends MSS7341-742_freq

*======================================================================
* SPICE Model generated by Coilcraft
* Coilcraft Part Number : MSS7341-742
* Inductance = 7.4uH
*======================================================================
* Model Parameters:
*   Valid Frequency Range = 0.1MHz-60MHz
*   Ambient Temperature = 25 degC
*   Inductor Impedance Model
*   Use model for Time Domain simulations
*======================================================================
.subckt MSS7341-742_imp port1 port2 PARAMS: Cpar=2.66pF Ind=7.4uH
X1 port1 port2 Model1D PARAMS:
+ R1=11
+ R2=0.031
+ C= {Cpar}
+ K1=0.00147
+ K2=1.06
+ K3= {Ind}
+ K4=0.21
+ K5=0.000009
+ L=0
+ Is=0
+ a=0
+ L_Z0=0
+ L_EL=0
+ L_F0=0E6
+ PkZ=5965.09413
.ends MSS7341-742_imp

*======================================================================
* SPICE Model generated by Coilcraft
* Coilcraft Part Number : MSS7341-872
* Inductance = 8.7uH
*======================================================================
* Model Parameters:
*   Valid Frequency Range = 0.1MHz-60MHz
*   Ambient Temperature = 25 degC
*   Inductor Frequency Model
*   Use model for Frequency Domain simulations
*======================================================================
.subckt MSS7341-872_freq port1 port2 PARAMS: Cpar=3.17pF Ind=8.7uH
X1 port1 port2 Model1A PARAMS:
+ R1=26
+ R2=0.034
+ C= {Cpar}
+ K1=0.00067
+ K2=1.26
+ K3= {Ind}
+ K4=0.21
+ K5=0.0000095
+ L=0
+ Is=0
+ a=0
+ L_Z0=0
+ L_EL=0
+ L_F0=0E6
+ PkZ=6597.86815
.ends MSS7341-872_freq

*======================================================================
* SPICE Model generated by Coilcraft
* Coilcraft Part Number : MSS7341-872
* Inductance = 8.7uH
*======================================================================
* Model Parameters:
*   Valid Frequency Range = 0.1MHz-60MHz
*   Ambient Temperature = 25 degC
*   Inductor Impedance Model
*   Use model for Time Domain simulations
*======================================================================
.subckt MSS7341-872_imp port1 port2 PARAMS: Cpar=2.74pF Ind=8.7uH
X1 port1 port2 Model1D PARAMS:
+ R1=26
+ R2=0.034
+ C= {Cpar}
+ K1=0.00067
+ K2=1.26
+ K3= {Ind}
+ K4=0.21
+ K5=0.0000095
+ L=0
+ Is=0
+ a=0
+ L_Z0=0
+ L_EL=0
+ L_F0=0E6
+ PkZ=6597.86815
.ends MSS7341-872_imp

*======================================================================
* SPICE Model generated by Coilcraft
* Coilcraft Part Number : MSS7341-103
* Inductance = 10uH
*======================================================================
* Model Parameters:
*   Valid Frequency Range = 0.1MHz-50MHz
*   Ambient Temperature = 25 degC
*   Inductor Frequency Model
*   Use model for Frequency Domain simulations
*======================================================================
.subckt MSS7341-103_freq port1 port2 PARAMS: Cpar=3.6pF Ind=10uH
X1 port1 port2 Model1A PARAMS:
+ R1=26
+ R2=0.038
+ C= {Cpar}
+ K1=0.00079
+ K2=1.92
+ K3= {Ind}
+ K4=0.34
+ K5=0.00000972
+ L=0
+ Is=0
+ a=0
+ L_Z0=0
+ L_EL=0
+ L_F0=0E6
+ PkZ=9134.81389
.ends MSS7341-103_freq

*======================================================================
* SPICE Model generated by Coilcraft
* Coilcraft Part Number : MSS7341-103
* Inductance = 10uH
*======================================================================
* Model Parameters:
*   Valid Frequency Range = 0.1MHz-50MHz
*   Ambient Temperature = 25 degC
*   Inductor Impedance Model
*   Use model for Time Domain simulations
*======================================================================
.subckt MSS7341-103_imp port1 port2 PARAMS: Cpar=2.92pF Ind=10uH
X1 port1 port2 Model1D PARAMS:
+ R1=26
+ R2=0.038
+ C= {Cpar}
+ K1=0.00079
+ K2=1.92
+ K3= {Ind}
+ K4=0.34
+ K5=0.00000972
+ L=0
+ Is=0
+ a=0
+ L_Z0=0
+ L_EL=0
+ L_F0=0E6
+ PkZ=9134.81389
.ends MSS7341-103_imp

*======================================================================
* SPICE Model generated by Coilcraft
* Coilcraft Part Number : MSS7341-123
* Inductance = 12uH
*======================================================================
* Model Parameters:
*   Valid Frequency Range = 0.1MHz-50MHz
*   Ambient Temperature = 25 degC
*   Inductor Frequency Model
*   Use model for Frequency Domain simulations
*======================================================================
.subckt MSS7341-123_freq port1 port2 PARAMS: Cpar=2.89pF Ind=12uH
X1 port1 port2 Model1A PARAMS:
+ R1=30
+ R2=0.053
+ C= {Cpar}
+ K1=0.000867
+ K2=1.84
+ K3= {Ind}
+ K4=0.34
+ K5=0.00000963
+ L=0
+ Is=0
+ a=0
+ L_Z0=0
+ L_EL=0
+ L_F0=0E6
+ PkZ=9083.10349
.ends MSS7341-123_freq

*======================================================================
* SPICE Model generated by Coilcraft
* Coilcraft Part Number : MSS7341-123
* Inductance = 12uH
*======================================================================
* Model Parameters:
*   Valid Frequency Range = 0.1MHz-50MHz
*   Ambient Temperature = 25 degC
*   Inductor Impedance Model
*   Use model for Time Domain simulations
*======================================================================
.subckt MSS7341-123_imp port1 port2 PARAMS: Cpar=2.43pF Ind=12uH
X1 port1 port2 Model1D PARAMS:
+ R1=30
+ R2=0.053
+ C= {Cpar}
+ K1=0.000867
+ K2=1.84
+ K3= {Ind}
+ K4=0.34
+ K5=0.00000963
+ L=0
+ Is=0
+ a=0
+ L_Z0=0
+ L_EL=0
+ L_F0=0E6
+ PkZ=9083.10349
.ends MSS7341-123_imp

*======================================================================
* SPICE Model generated by Coilcraft
* Coilcraft Part Number : MSS7341-153
* Inductance = 15uH
*======================================================================
* Model Parameters:
*   Valid Frequency Range = 0.1MHz-50MHz
*   Ambient Temperature = 25 degC
*   Inductor Frequency Model
*   Use model for Frequency Domain simulations
*======================================================================
.subckt MSS7341-153_freq port1 port2 PARAMS: Cpar=2.42pF Ind=15uH
X1 port1 port2 Model1A PARAMS:
+ R1=43
+ R2=0.057
+ C= {Cpar}
+ K1=0.0013
+ K2=2.37
+ K3= {Ind}
+ K4=0.467
+ K5=0.0000096
+ L=0
+ Is=0
+ a=0
+ L_Z0=0
+ L_EL=0
+ L_F0=0E6
+ PkZ=11354.0759
.ends MSS7341-153_freq

*======================================================================
* SPICE Model generated by Coilcraft
* Coilcraft Part Number : MSS7341-153
* Inductance = 15uH
*======================================================================
* Model Parameters:
*   Valid Frequency Range = 0.1MHz-50MHz
*   Ambient Temperature = 25 degC
*   Inductor Impedance Model
*   Use model for Time Domain simulations
*======================================================================
.subckt MSS7341-153_imp port1 port2 PARAMS: Cpar=2.00pF Ind=15uH
X1 port1 port2 Model1D PARAMS:
+ R1=43
+ R2=0.057
+ C= {Cpar}
+ K1=0.0013
+ K2=2.37
+ K3= {Ind}
+ K4=0.467
+ K5=0.0000096
+ L=0
+ Is=0
+ a=0
+ L_Z0=0
+ L_EL=0
+ L_F0=0E6
+ PkZ=11354.0759
.ends MSS7341-153_imp

*======================================================================
* SPICE Model generated by Coilcraft
* Coilcraft Part Number : MSS7341-183
* Inductance = 18uH
*======================================================================
* Model Parameters:
*   Valid Frequency Range = 0.1MHz-50MHz
*   Ambient Temperature = 25 degC
*   Inductor Frequency Model
*   Use model for Frequency Domain simulations
*======================================================================
.subckt MSS7341-183_freq port1 port2 PARAMS: Cpar=2.2pF Ind=18uH
X1 port1 port2 Model1A PARAMS:
+ R1=35
+ R2=0.078
+ C= {Cpar}
+ K1=0.000782
+ K2=2.76
+ K3= {Ind}
+ K4=0.467
+ K5=0.00000973
+ L=0
+ Is=0
+ a=0
+ L_Z0=0
+ L_EL=0
+ L_F0=0E6
+ PkZ=13350.658
.ends MSS7341-183_freq

*======================================================================
* SPICE Model generated by Coilcraft
* Coilcraft Part Number : MSS7341-183
* Inductance = 18uH
*======================================================================
* Model Parameters:
*   Valid Frequency Range = 0.1MHz-50MHz
*   Ambient Temperature = 25 degC
*   Inductor Impedance Model
*   Use model for Time Domain simulations
*======================================================================
.subckt MSS7341-183_imp port1 port2 PARAMS: Cpar=1.89pF Ind=18uH
X1 port1 port2 Model1D PARAMS:
+ R1=35
+ R2=0.078
+ C= {Cpar}
+ K1=0.000782
+ K2=2.76
+ K3= {Ind}
+ K4=0.467
+ K5=0.00000973
+ L=0
+ Is=0
+ a=0
+ L_Z0=0
+ L_EL=0
+ L_F0=0E6
+ PkZ=13350.658
.ends MSS7341-183_imp

*======================================================================
* SPICE Model generated by Coilcraft
* Coilcraft Part Number : MSS7341-223
* Inductance = 22uH
*======================================================================
* Model Parameters:
*   Valid Frequency Range = 0.1MHz-50MHz
*   Ambient Temperature = 25 degC
*   Inductor Frequency Model
*   Use model for Frequency Domain simulations
*======================================================================
.subckt MSS7341-223_freq port1 port2 PARAMS: Cpar=2.6pF Ind=22uH
X1 port1 port2 Model1A PARAMS:
+ R1=33
+ R2=0.082
+ C= {Cpar}
+ K1=0.00138
+ K2=3.95
+ K3= {Ind}
+ K4=0.91
+ K5=0.00000981
+ L=0
+ Is=0
+ a=0
+ L_Z0=0
+ L_EL=0
+ L_F0=0E6
+ PkZ=17255.1308
.ends MSS7341-223_freq

*======================================================================
* SPICE Model generated by Coilcraft
* Coilcraft Part Number : MSS7341-223
* Inductance = 22uH
*======================================================================
* Model Parameters:
*   Valid Frequency Range = 0.1MHz-50MHz
*   Ambient Temperature = 25 degC
*   Inductor Impedance Model
*   Use model for Time Domain simulations
*======================================================================
.subckt MSS7341-223_imp port1 port2 PARAMS: Cpar=2.03pF Ind=22uH
X1 port1 port2 Model1D PARAMS:
+ R1=33
+ R2=0.082
+ C= {Cpar}
+ K1=0.00138
+ K2=3.95
+ K3= {Ind}
+ K4=0.91
+ K5=0.00000981
+ L=0
+ Is=0
+ a=0
+ L_Z0=0
+ L_EL=0
+ L_F0=0E6
+ PkZ=17255.1308
.ends MSS7341-223_imp

*======================================================================
* SPICE Model generated by Coilcraft
* Coilcraft Part Number : MSS7341-273
* Inductance = 27uH
*======================================================================
* Model Parameters:
*   Valid Frequency Range = 0.1MHz-50MHz
*   Ambient Temperature = 25 degC
*   Inductor Frequency Model
*   Use model for Frequency Domain simulations
*======================================================================
.subckt MSS7341-273_freq port1 port2 PARAMS: Cpar=2.75pF Ind=27uH
X1 port1 port2 Model1A PARAMS:
+ R1=36
+ R2=0.109
+ C= {Cpar}
+ K1=0.00342
+ K2=5.24
+ K3= {Ind}
+ K4=1
+ K5=0.00000963
+ L=0
+ Is=0
+ a=0
+ L_Z0=0
+ L_EL=0
+ L_F0=0E6
+ PkZ=20557.5074
.ends MSS7341-273_freq

*======================================================================
* SPICE Model generated by Coilcraft
* Coilcraft Part Number : MSS7341-273
* Inductance = 27uH
*======================================================================
* Model Parameters:
*   Valid Frequency Range = 0.1MHz-50MHz
*   Ambient Temperature = 25 degC
*   Inductor Impedance Model
*   Use model for Time Domain simulations
*======================================================================
.subckt MSS7341-273_imp port1 port2 PARAMS: Cpar=2.22pF Ind=27uH
X1 port1 port2 Model1D PARAMS:
+ R1=36
+ R2=0.109
+ C= {Cpar}
+ K1=0.00342
+ K2=5.24
+ K3= {Ind}
+ K4=1
+ K5=0.00000963
+ L=0
+ Is=0
+ a=0
+ L_Z0=0
+ L_EL=0
+ L_F0=0E6
+ PkZ=20557.5074
.ends MSS7341-273_imp

*======================================================================
* SPICE Model generated by Coilcraft
* Coilcraft Part Number : MSS7341-333
* Inductance = 33uH
*======================================================================
* Model Parameters:
*   Valid Frequency Range = 0.1MHz-40MHz
*   Ambient Temperature = 25 degC
*   Inductor Frequency Model
*   Use model for Frequency Domain simulations
*======================================================================
.subckt MSS7341-333_freq port1 port2 PARAMS: Cpar=2.62pF Ind=33uH
X1 port1 port2 Model1A PARAMS:
+ R1=31
+ R2=0.124
+ C= {Cpar}
+ K1=0.00187
+ K2=4.9
+ K3= {Ind}
+ K4=1.47
+ K5=0.0000098
+ L=0
+ Is=0
+ a=0
+ L_Z0=0
+ L_EL=0
+ L_F0=0E6
+ PkZ=19862.9034
.ends MSS7341-333_freq

*======================================================================
* SPICE Model generated by Coilcraft
* Coilcraft Part Number : MSS7341-333
* Inductance = 33uH
*======================================================================
* Model Parameters:
*   Valid Frequency Range = 0.1MHz-40MHz
*   Ambient Temperature = 25 degC
*   Inductor Impedance Model
*   Use model for Time Domain simulations
*======================================================================
.subckt MSS7341-333_imp port1 port2 PARAMS: Cpar=2.02pF Ind=33uH
X1 port1 port2 Model1D PARAMS:
+ R1=31
+ R2=0.124
+ C= {Cpar}
+ K1=0.00187
+ K2=4.9
+ K3= {Ind}
+ K4=1.47
+ K5=0.0000098
+ L=0
+ Is=0
+ a=0
+ L_Z0=0
+ L_EL=0
+ L_F0=0E6
+ PkZ=19862.9034
.ends MSS7341-333_imp

*======================================================================
* SPICE Model generated by Coilcraft
* Coilcraft Part Number : MSS7341-393
* Inductance = 39uH
*======================================================================
* Model Parameters:
*   Valid Frequency Range = 0.1MHz-40MHz
*   Ambient Temperature = 25 degC
*   Inductor Frequency Model
*   Use model for Frequency Domain simulations
*======================================================================
.subckt MSS7341-393_freq port1 port2 PARAMS: Cpar=2.17pF Ind=39uH
X1 port1 port2 Model1A PARAMS:
+ R1=40
+ R2=0.138
+ C= {Cpar}
+ K1=0.00247
+ K2=5.3
+ K3= {Ind}
+ K4=1.94
+ K5=0.00000978
+ L=0
+ Is=0
+ a=0
+ L_Z0=0
+ L_EL=0
+ L_F0=0E6
+ PkZ=21714.1406
.ends MSS7341-393_freq

*======================================================================
* SPICE Model generated by Coilcraft
* Coilcraft Part Number : MSS7341-393
* Inductance = 39uH
*======================================================================
* Model Parameters:
*   Valid Frequency Range = 0.1MHz-40MHz
*   Ambient Temperature = 25 degC
*   Inductor Impedance Model
*   Use model for Time Domain simulations
*======================================================================
.subckt MSS7341-393_imp port1 port2 PARAMS: Cpar=1.62pF Ind=39uH
X1 port1 port2 Model1D PARAMS:
+ R1=40
+ R2=0.138
+ C= {Cpar}
+ K1=0.00247
+ K2=5.3
+ K3= {Ind}
+ K4=1.94
+ K5=0.00000978
+ L=0
+ Is=0
+ a=0
+ L_Z0=0
+ L_EL=0
+ L_F0=0E6
+ PkZ=21714.1406
.ends MSS7341-393_imp

*======================================================================
* SPICE Model generated by Coilcraft
* Coilcraft Part Number : MSS7341-473
* Inductance = 47uH
*======================================================================
* Model Parameters:
*   Valid Frequency Range = 0.1MHz-30MHz
*   Ambient Temperature = 25 degC
*   Inductor Frequency Model
*   Use model for Frequency Domain simulations
*======================================================================
.subckt MSS7341-473_freq port1 port2 PARAMS: Cpar=2.92pF Ind=47uH
X1 port1 port2 Model1A PARAMS:
+ R1=70
+ R2=0.155
+ C= {Cpar}
+ K1=0.00268
+ K2=8
+ K3= {Ind}
+ K4=1.76
+ K5=0.0000098
+ L=0
+ Is=0
+ a=0
+ L_Z0=0
+ L_EL=0
+ L_F0=0E6
+ PkZ=26051.6791
.ends MSS7341-473_freq

*======================================================================
* SPICE Model generated by Coilcraft
* Coilcraft Part Number : MSS7341-473
* Inductance = 47uH
*======================================================================
* Model Parameters:
*   Valid Frequency Range = 0.1MHz-30MHz
*   Ambient Temperature = 25 degC
*   Inductor Impedance Model
*   Use model for Time Domain simulations
*======================================================================
.subckt MSS7341-473_imp port1 port2 PARAMS: Cpar=2.39pF Ind=47uH
X1 port1 port2 Model1D PARAMS:
+ R1=70
+ R2=0.155
+ C= {Cpar}
+ K1=0.00268
+ K2=8
+ K3= {Ind}
+ K4=1.76
+ K5=0.0000098
+ L=0
+ Is=0
+ a=0
+ L_Z0=0
+ L_EL=0
+ L_F0=0E6
+ PkZ=26051.6791
.ends MSS7341-473_imp

*======================================================================
* SPICE Model generated by Coilcraft
* Coilcraft Part Number : MSS7341-563
* Inductance = 56uH
*======================================================================
* Model Parameters:
*   Valid Frequency Range = 0.1MHz-30MHz
*   Ambient Temperature = 25 degC
*   Inductor Frequency Model
*   Use model for Frequency Domain simulations
*======================================================================
.subckt MSS7341-563_freq port1 port2 PARAMS: Cpar=2.83pF Ind=56uH
X1 port1 port2 Model1A PARAMS:
+ R1=65
+ R2=0.202
+ C= {Cpar}
+ K1=0.00298
+ K2=9
+ K3= {Ind}
+ K4=2
+ K5=0.00000979
+ L=0
+ Is=0
+ a=0
+ L_Z0=0
+ L_EL=0
+ L_F0=0E6
+ PkZ=29006.6149
.ends MSS7341-563_freq

*======================================================================
* SPICE Model generated by Coilcraft
* Coilcraft Part Number : MSS7341-563
* Inductance = 56uH
*======================================================================
* Model Parameters:
*   Valid Frequency Range = 0.1MHz-30MHz
*   Ambient Temperature = 25 degC
*   Inductor Impedance Model
*   Use model for Time Domain simulations
*======================================================================
.subckt MSS7341-563_imp port1 port2 PARAMS: Cpar=2.34pF Ind=56uH
X1 port1 port2 Model1D PARAMS:
+ R1=65
+ R2=0.202
+ C= {Cpar}
+ K1=0.00298
+ K2=9
+ K3= {Ind}
+ K4=2
+ K5=0.00000979
+ L=0
+ Is=0
+ a=0
+ L_Z0=0
+ L_EL=0
+ L_F0=0E6
+ PkZ=29006.6149
.ends MSS7341-563_imp

*======================================================================
* SPICE Model generated by Coilcraft
* Coilcraft Part Number : MSS7341-683
* Inductance = 68uH
*======================================================================
* Model Parameters:
*   Valid Frequency Range = 0.1MHz-20MHz
*   Ambient Temperature = 25 degC
*   Inductor Frequency Model
*   Use model for Frequency Domain simulations
*======================================================================
.subckt MSS7341-683_freq port1 port2 PARAMS: Cpar=2.59pF Ind=68uH
X1 port1 port2 Model1A PARAMS:
+ R1=80
+ R2=0.276
+ C= {Cpar}
+ K1=0.00346
+ K2=11.8
+ K3= {Ind}
+ K4=2.27
+ K5=0.0000098
+ L=0
+ Is=0
+ a=0
+ L_Z0=0
+ L_EL=0
+ L_F0=0E6
+ PkZ=36181.6046
.ends MSS7341-683_freq

*======================================================================
* SPICE Model generated by Coilcraft
* Coilcraft Part Number : MSS7341-683
* Inductance = 68uH
*======================================================================
* Model Parameters:
*   Valid Frequency Range = 0.1MHz-20MHz
*   Ambient Temperature = 25 degC
*   Inductor Impedance Model
*   Use model for Time Domain simulations
*======================================================================
.subckt MSS7341-683_imp port1 port2 PARAMS: Cpar=2.18pF Ind=68uH
X1 port1 port2 Model1D PARAMS:
+ R1=80
+ R2=0.276
+ C= {Cpar}
+ K1=0.00346
+ K2=11.8
+ K3= {Ind}
+ K4=2.27
+ K5=0.0000098
+ L=0
+ Is=0
+ a=0
+ L_Z0=0
+ L_EL=0
+ L_F0=0E6
+ PkZ=36181.6046
.ends MSS7341-683_imp

*======================================================================
* SPICE Model generated by Coilcraft
* Coilcraft Part Number : MSS7341-823
* Inductance = 82uH
*======================================================================
* Model Parameters:
*   Valid Frequency Range = 0.1MHz-20MHz
*   Ambient Temperature = 25 degC
*   Inductor Frequency Model
*   Use model for Frequency Domain simulations
*======================================================================
.subckt MSS7341-823_freq port1 port2 PARAMS: Cpar=3.16pF Ind=82uH
X1 port1 port2 Model1A PARAMS:
+ R1=92
+ R2=0.324
+ C= {Cpar}
+ K1=0.0039
+ K2=15
+ K3= {Ind}
+ K4=2.75
+ K5=0.00000984
+ L=0
+ Is=0
+ a=0
+ L_Z0=0
+ L_EL=0
+ L_F0=0E6
+ PkZ=39806.7426
.ends MSS7341-823_freq

*======================================================================
* SPICE Model generated by Coilcraft
* Coilcraft Part Number : MSS7341-823
* Inductance = 82uH
*======================================================================
* Model Parameters:
*   Valid Frequency Range = 0.1MHz-20MHz
*   Ambient Temperature = 25 degC
*   Inductor Impedance Model
*   Use model for Time Domain simulations
*======================================================================
.subckt MSS7341-823_imp port1 port2 PARAMS: Cpar=2.67pF Ind=82uH
X1 port1 port2 Model1D PARAMS:
+ R1=92
+ R2=0.324
+ C= {Cpar}
+ K1=0.0039
+ K2=15
+ K3= {Ind}
+ K4=2.75
+ K5=0.00000984
+ L=0
+ Is=0
+ a=0
+ L_Z0=0
+ L_EL=0
+ L_F0=0E6
+ PkZ=39806.7426
.ends MSS7341-823_imp

*======================================================================
* SPICE Model generated by Coilcraft
* Coilcraft Part Number : MSS7341-104
* Inductance = 100uH
*======================================================================
* Model Parameters:
*   Valid Frequency Range = 0.1MHz-20MHz
*   Ambient Temperature = 25 degC
*   Inductor Frequency Model
*   Use model for Frequency Domain simulations
*======================================================================
.subckt MSS7341-104_freq port1 port2 PARAMS: Cpar=2.49pF Ind=100uH
X1 port1 port2 Model1A PARAMS:
+ R1=90
+ R2=0.358
+ C= {Cpar}
+ K1=0.00382
+ K2=15.9
+ K3= {Ind}
+ K4=3.02
+ K5=0.00000982
+ L=0
+ Is=0
+ a=0
+ L_Z0=0
+ L_EL=0
+ L_F0=0E6
+ PkZ=45351.0947
.ends MSS7341-104_freq

*======================================================================
* SPICE Model generated by Coilcraft
* Coilcraft Part Number : MSS7341-104
* Inductance = 100uH
*======================================================================
* Model Parameters:
*   Valid Frequency Range = 0.1MHz-20MHz
*   Ambient Temperature = 25 degC
*   Inductor Impedance Model
*   Use model for Time Domain simulations
*======================================================================
.subckt MSS7341-104_imp port1 port2 PARAMS: Cpar=2.14pF Ind=100uH
X1 port1 port2 Model1D PARAMS:
+ R1=90
+ R2=0.358
+ C= {Cpar}
+ K1=0.00382
+ K2=15.9
+ K3= {Ind}
+ K4=3.02
+ K5=0.00000982
+ L=0
+ Is=0
+ a=0
+ L_Z0=0
+ L_EL=0
+ L_F0=0E6
+ PkZ=45351.0947
.ends MSS7341-104_imp

*======================================================================
* SPICE Model generated by Coilcraft
* Coilcraft Impedance Inductor Model
*======================================================================
* Model Parameters:
*   Valid Frequency Range Varies by Inductor
*   Ambient Temperature = 25 degC
*   Time Domain Inductor Impedance Model
*======================================================================
.subckt Model1D Lin Lout PARAMS:
+ R1=1
+ R2=1
+ C=1
+ K3=1
+ PkZ=1
R2 Lin N001 {R2}
R3 N001 Lout {PkZ}
C1 N001 N002 {C}
R1 N002 Lout {R1}
L1 N001 Lout {K3}
.ends Model1D

*======================================================================
* SPICE Model generated by Coilcraft
* Coilcraft Power Inductor Model
*======================================================================
* Model Parameters:
*   Valid Frequency Range Varies by Inductor
*   Ambient Temperature = 25 degC
*   DC Bias Current = 0 A
*   Frequency Dependent Inductor Model
*======================================================================
.subckt Model1A Lin Lout PARAMS:
+ R1=1
+ R2=1
+ C=1
+ K1=1
+ K2=1
+ K3=1
+ K4=1
+ K5=1
R2 N001 Lin {R2}
R1 Lout N002 {R1}
C1 N002 N001 {C}
G_Rvar2 N001 Lout LAPLACE { V(N001, Lout) } {1/K2/(-S*S/4/PI^2)^0.25}
G_Rvar1 N001 N003 LAPLACE { V(N001, N003) } {1/K1/(-S*S/4/PI^2)^0.25}
G_Lvar N003 Lout  LAPLACE { V(N003, Lout) } {1/(S*1e-6*({K3*1e6}-({K4}*LOG({K5}*(sqrt(-S*S)/(2*pi))))))}
*This large resistance to ground has been added to prevent a floating node error
R3 N003 0 100Meg
.ends Model1A


.subckt Coilcraft_Inductor Lin Lout
R1 Lout Lin 100Meg
.ends Coilcraft_Inductor
