*======================================================================
* SPICE Model generated by Coilcraft
* Coilcraft Part Number : XAL1060-181
* Inductance = 0.18uH
*======================================================================
* Model Parameters:
*   Valid Frequency Range = 0.1MHz-150MHz
*   Ambient Temperature = 25 degC
*   Inductor Frequency Model
*   Use model for Frequency Domain simulations
*======================================================================
.subckt XAL1060-181_freq port1 port2 PARAMS: Cpar=9pF Ind=0.18uH
X1 port1 port2 Model1A PARAMS:
+ R1=28
+ R2=0.0005
+ C= {Cpar}
+ K1=0.000001
+ K2=0.0302
+ K3= {Ind}
+ K4=0.0017
+ K5=0.0000493
+ L=1.6766E-07
+ Is=258.859071
+ a=0.69600303
+ L_Z0=0
+ L_EL=0
+ L_F0=0E6
+ PkZ=228.690865
.ends XAL1060-181_freq

*======================================================================
* SPICE Model generated by Coilcraft
* Coilcraft Part Number : XAL1060-181
* Inductance = 0.18uH
*======================================================================
* Model Parameters:
*   Valid Frequency Range = 0.1MHz-150MHz
*   Ambient Temperature = 25 degC
*   Inductor Saturation Model
*   Use model for Time Domain simulations
*======================================================================
.subckt XAL1060-181_sat port1 port2 PARAMS: Cpar=8.26pF Ind=0.18uH
X1 port1 port2 Model1C PARAMS:
+ R1=28
+ R2=0.0005
+ C= {Cpar}
+ K1=0.000001
+ K2=0.0302
+ K3= {Ind}
+ K4=0.0017
+ K5=0.0000493
+ L=1.6766E-07
+ Is=258.859071
+ a=0.69600303
+ L_Z0=0
+ L_EL=0
+ L_F0=0E6
+ PkZ=228.690865
.ends XAL1060-181_sat

*======================================================================
* SPICE Model generated by Coilcraft
* Coilcraft Part Number : XAL1060-401
* Inductance = 0.4uH
*======================================================================
* Model Parameters:
*   Valid Frequency Range = 0.1MHz-100MHz
*   Ambient Temperature = 25 degC
*   Inductor Frequency Model
*   Use model for Frequency Domain simulations
*======================================================================
.subckt XAL1060-401_freq port1 port2 PARAMS: Cpar=11.5pF Ind=0.4uH
X1 port1 port2 Model1A PARAMS:
+ R1=10.7
+ R2=0.0008
+ C= {Cpar}
+ K1=0.000001
+ K2=0.0511
+ K3= {Ind}
+ K4=0.00289
+ K5=0.648
+ L=3.5281E-07
+ Is=221.389367
+ a=0.57749303
+ L_Z0=0
+ L_EL=0
+ L_F0=0E6
+ PkZ=392.591263
.ends XAL1060-401_freq

*======================================================================
* SPICE Model generated by Coilcraft
* Coilcraft Part Number : XAL1060-401
* Inductance = 0.4uH
*======================================================================
* Model Parameters:
*   Valid Frequency Range = 0.1MHz-100MHz
*   Ambient Temperature = 25 degC
*   Inductor Saturation Model
*   Use model for Time Domain simulations
*======================================================================
.subckt XAL1060-401_sat port1 port2 PARAMS: Cpar=10.03pF Ind=0.4uH
X1 port1 port2 Model1C PARAMS:
+ R1=10.7
+ R2=0.0008
+ C= {Cpar}
+ K1=0.000001
+ K2=0.0511
+ K3= {Ind}
+ K4=0.00289
+ K5=0.648
+ L=3.5281E-07
+ Is=221.389367
+ a=0.57749303
+ L_Z0=0
+ L_EL=0
+ L_F0=0E6
+ PkZ=392.591263
.ends XAL1060-401_sat

*======================================================================
* SPICE Model generated by Coilcraft
* Coilcraft Part Number : XAL1060-681
* Inductance = 0.68uH
*======================================================================
* Model Parameters:
*   Valid Frequency Range = 0.1MHz-90MHz
*   Ambient Temperature = 25 degC
*   Inductor Frequency Model
*   Use model for Frequency Domain simulations
*======================================================================
.subckt XAL1060-681_freq port1 port2 PARAMS: Cpar=12.9pF Ind=0.68uH
X1 port1 port2 Model1A PARAMS:
+ R1=10.9
+ R2=0.00135
+ C= {Cpar}
+ K1=0.000001
+ K2=0.097
+ K3= {Ind}
+ K4=0.00896
+ K5=0.000001
+ L=6.1172E-07
+ Is=180.66302
+ a=0.58827286
+ L_Z0=0
+ L_EL=0
+ L_F0=0E6
+ PkZ=622.887303
.ends XAL1060-681_freq

*======================================================================
* SPICE Model generated by Coilcraft
* Coilcraft Part Number : XAL1060-681
* Inductance = 0.68uH
*======================================================================
* Model Parameters:
*   Valid Frequency Range = 0.1MHz-90MHz
*   Ambient Temperature = 25 degC
*   Inductor Saturation Model
*   Use model for Time Domain simulations
*======================================================================
.subckt XAL1060-681_sat port1 port2 PARAMS: Cpar=12.22pF Ind=0.68uH
X1 port1 port2 Model1C PARAMS:
+ R1=10.9
+ R2=0.00135
+ C= {Cpar}
+ K1=0.000001
+ K2=0.097
+ K3= {Ind}
+ K4=0.00896
+ K5=0.000001
+ L=6.1172E-07
+ Is=180.66302
+ a=0.58827286
+ L_Z0=0
+ L_EL=0
+ L_F0=0E6
+ PkZ=622.887303
.ends XAL1060-681_sat

*======================================================================
* SPICE Model generated by Coilcraft
* Coilcraft Part Number : XAL1060-122
* Inductance = 1.2uH
*======================================================================
* Model Parameters:
*   Valid Frequency Range = 0.1MHz-80MHz
*   Ambient Temperature = 25 degC
*   Inductor Frequency Model
*   Use model for Frequency Domain simulations
*======================================================================
.subckt XAL1060-122_freq port1 port2 PARAMS: Cpar=15.2pF Ind=1.2uH
X1 port1 port2 Model1A PARAMS:
+ R1=8.3
+ R2=0.0025
+ C= {Cpar}
+ K1=0.000001
+ K2=0.172
+ K3= {Ind}
+ K4=0.0146
+ K5=0.000401
+ L=1.268E-06
+ Is=90.7533074
+ a=0.70427214
+ L_Z0=0
+ L_EL=0
+ L_F0=0E6
+ PkZ=959.425965
.ends XAL1060-122_freq

*======================================================================
* SPICE Model generated by Coilcraft
* Coilcraft Part Number : XAL1060-122
* Inductance = 1.2uH
*======================================================================
* Model Parameters:
*   Valid Frequency Range = 0.1MHz-80MHz
*   Ambient Temperature = 25 degC
*   Inductor Saturation Model
*   Use model for Time Domain simulations
*======================================================================
.subckt XAL1060-122_sat port1 port2 PARAMS: Cpar=13.42pF Ind=1.2uH
X1 port1 port2 Model1C PARAMS:
+ R1=8.3
+ R2=0.0025
+ C= {Cpar}
+ K1=0.000001
+ K2=0.172
+ K3= {Ind}
+ K4=0.0146
+ K5=0.000401
+ L=1.268E-06
+ Is=90.7533074
+ a=0.70427214
+ L_Z0=0
+ L_EL=0
+ L_F0=0E6
+ PkZ=959.425965
.ends XAL1060-122_sat

*======================================================================
* SPICE Model generated by Coilcraft
* Coilcraft Part Number : XAL1060-152
* Inductance = 1.5uH
*======================================================================
* Model Parameters:
*   Valid Frequency Range = 0.1MHz-60MHz
*   Ambient Temperature = 25 degC
*   Inductor Frequency Model
*   Use model for Frequency Domain simulations
*======================================================================
.subckt XAL1060-152_freq port1 port2 PARAMS: Cpar=12.3pF Ind=1.5uH
X1 port1 port2 Model1A PARAMS:
+ R1=18.6
+ R2=0.003
+ C= {Cpar}
+ K1=0.000001
+ K2=0.223
+ K3= {Ind}
+ K4=0.017
+ K5=0.00000716
+ L=1.4031E-06
+ Is=112.468844
+ a=0.61527056
+ L_Z0=0
+ L_EL=0
+ L_F0=0E6
+ PkZ=1127.15535
.ends XAL1060-152_freq

*======================================================================
* SPICE Model generated by Coilcraft
* Coilcraft Part Number : XAL1060-152
* Inductance = 1.5uH
*======================================================================
* Model Parameters:
*   Valid Frequency Range = 0.1MHz-60MHz
*   Ambient Temperature = 25 degC
*   Inductor Saturation Model
*   Use model for Time Domain simulations
*======================================================================
.subckt XAL1060-152_sat port1 port2 PARAMS: Cpar=11.52pF Ind=1.5uH
X1 port1 port2 Model1C PARAMS:
+ R1=18.6
+ R2=0.003
+ C= {Cpar}
+ K1=0.000001
+ K2=0.223
+ K3= {Ind}
+ K4=0.017
+ K5=0.00000716
+ L=1.4031E-06
+ Is=112.468844
+ a=0.61527056
+ L_Z0=0
+ L_EL=0
+ L_F0=0E6
+ PkZ=1127.15535
.ends XAL1060-152_sat

*======================================================================
* SPICE Model generated by Coilcraft
* Coilcraft Part Number : XAL1060-222
* Inductance = 2.2uH
*======================================================================
* Model Parameters:
*   Valid Frequency Range = 0.1MHz-60MHz
*   Ambient Temperature = 25 degC
*   Inductor Frequency Model
*   Use model for Frequency Domain simulations
*======================================================================
.subckt XAL1060-222_freq port1 port2 PARAMS: Cpar=14.6pF Ind=2.2uH
X1 port1 port2 Model1A PARAMS:
+ R1=5.79
+ R2=0.0045
+ C= {Cpar}
+ K1=0.000001
+ K2=0.299
+ K3= {Ind}
+ K4=0.000001
+ K5=0.000001
+ L=2.1863E-06
+ Is=80.8850582
+ a=0.58212792
+ L_Z0=0
+ L_EL=0
+ L_F0=0E6
+ PkZ=1493.49535
.ends XAL1060-222_freq

*======================================================================
* SPICE Model generated by Coilcraft
* Coilcraft Part Number : XAL1060-222
* Inductance = 2.2uH
*======================================================================
* Model Parameters:
*   Valid Frequency Range = 0.1MHz-60MHz
*   Ambient Temperature = 25 degC
*   Inductor Saturation Model
*   Use model for Time Domain simulations
*======================================================================
.subckt XAL1060-222_sat port1 port2 PARAMS: Cpar=14.60pF Ind=2.2uH
X1 port1 port2 Model1C PARAMS:
+ R1=5.79
+ R2=0.0045
+ C= {Cpar}
+ K1=0.000001
+ K2=0.299
+ K3= {Ind}
+ K4=0.000001
+ K5=0.000001
+ L=2.1863E-06
+ Is=80.8850582
+ a=0.58212792
+ L_Z0=0
+ L_EL=0
+ L_F0=0E6
+ PkZ=1493.49535
.ends XAL1060-222_sat

*======================================================================
* SPICE Model generated by Coilcraft
* Coilcraft Part Number : XAL1060-332
* Inductance = 3.3uH
*======================================================================
* Model Parameters:
*   Valid Frequency Range = 0.1MHz-60MHz
*   Ambient Temperature = 25 degC
*   Inductor Frequency Model
*   Use model for Frequency Domain simulations
*======================================================================
.subckt XAL1060-332_freq port1 port2 PARAMS: Cpar=13.8pF Ind=3.3uH
X1 port1 port2 Model1A PARAMS:
+ R1=11
+ R2=0.0072
+ C= {Cpar}
+ K1=0.000001
+ K2=0.382
+ K3= {Ind}
+ K4=0.035
+ K5=0.0000898
+ L=3.3233E-06
+ Is=61.0391748
+ a=0.64793746
+ L_Z0=0
+ L_EL=0
+ L_F0=0E6
+ PkZ=1730.6656
.ends XAL1060-332_freq

*======================================================================
* SPICE Model generated by Coilcraft
* Coilcraft Part Number : XAL1060-332
* Inductance = 3.3uH
*======================================================================
* Model Parameters:
*   Valid Frequency Range = 0.1MHz-60MHz
*   Ambient Temperature = 25 degC
*   Inductor Saturation Model
*   Use model for Time Domain simulations
*======================================================================
.subckt XAL1060-332_sat port1 port2 PARAMS: Cpar=12.68pF Ind=3.3uH
X1 port1 port2 Model1C PARAMS:
+ R1=11
+ R2=0.0072
+ C= {Cpar}
+ K1=0.000001
+ K2=0.382
+ K3= {Ind}
+ K4=0.035
+ K5=0.0000898
+ L=3.3233E-06
+ Is=61.0391748
+ a=0.64793746
+ L_Z0=0
+ L_EL=0
+ L_F0=0E6
+ PkZ=1730.6656
.ends XAL1060-332_sat

*======================================================================
* SPICE Model generated by Coilcraft
* Coilcraft Part Number : XAL1060-472
* Inductance = 4.7uH
*======================================================================
* Model Parameters:
*   Valid Frequency Range = 0.1MHz-60MHz
*   Ambient Temperature = 25 degC
*   Inductor Frequency Model
*   Use model for Frequency Domain simulations
*======================================================================
.subckt XAL1060-472_freq port1 port2 PARAMS: Cpar=17.3pF Ind=4.7uH
X1 port1 port2 Model1A PARAMS:
+ R1=3.5
+ R2=0.00975
+ C= {Cpar}
+ K1=0.000001
+ K2=0.8
+ K3= {Ind}
+ K4=0.000001
+ K5=0.000001
+ L=4.9175E-06
+ Is=65.5170974
+ a=0.58045659
+ L_Z0=0
+ L_EL=0
+ L_F0=0E6
+ PkZ=3221.33355
.ends XAL1060-472_freq

*======================================================================
* SPICE Model generated by Coilcraft
* Coilcraft Part Number : XAL1060-472
* Inductance = 4.7uH
*======================================================================
* Model Parameters:
*   Valid Frequency Range = 0.1MHz-60MHz
*   Ambient Temperature = 25 degC
*   Inductor Saturation Model
*   Use model for Time Domain simulations
*======================================================================
.subckt XAL1060-472_sat port1 port2 PARAMS: Cpar=17.30pF Ind=4.7uH
X1 port1 port2 Model1C PARAMS:
+ R1=3.5
+ R2=0.00975
+ C= {Cpar}
+ K1=0.000001
+ K2=0.8
+ K3= {Ind}
+ K4=0.000001
+ K5=0.000001
+ L=4.9175E-06
+ Is=65.5170974
+ a=0.58045659
+ L_Z0=0
+ L_EL=0
+ L_F0=0E6
+ PkZ=3221.33355
.ends XAL1060-472_sat

*======================================================================
* SPICE Model generated by Coilcraft
* Coilcraft Saturation Inductor Model
*======================================================================
* Model Parameters:
*   Valid Frequency Range Varies by Inductor
*   Ambient Temperature = 25 degC
*   Current Saturable Inductor Model
*======================================================================
.subckt Model1C Lin Lout PARAMS:
+ R1=1
+ R2=1
+ C=1
+ L=1
+ Is=1
+ a=1
+ PkZ=94.2 * {L} *1e6
R2 N001 Lin {R2}
R3 Lout N001 {PkZ}
C1 N002 N001 {C}
R1 Lout N002 {R1}
E1 N003 N001 N004 0 1
G1 0 N004 VALUE={{L*Is}*tanh((I(E1)/{Is})**{a})**{1/a}}
L1 N004 0 1
E2 N003 Lout N005 0 1
G2 0 N005 VALUE={{L*Is}*tanh((I(E2)/{Is})**{a})**{1/a}}
L2 N005 0 1
.ends Model1C
*======================================================================
* SPICE Model generated by Coilcraft
* Coilcraft Power Inductor Model
*======================================================================
* Model Parameters:
*   Valid Frequency Range Varies by Inductor
*   Ambient Temperature = 25 degC
*   DC Bias Current = 0 A
*   Frequency Dependent Inductor Model
*======================================================================
.subckt Model1A Lin Lout PARAMS:
+ R1=1
+ R2=1
+ C=1
+ K1=1
+ K2=1
+ K3=1
+ K4=1
+ K5=1
R2 N001 Lin {R2}
R1 Lout N002 {R1}
C1 N002 N001 {C}
G_Rvar2 N001 Lout LAPLACE { V(N001, Lout) } {1/K2/(-S*S/4/PI^2)^0.25}
G_Rvar1 N001 N003 LAPLACE { V(N001, N003) } {1/K1/(-S*S/4/PI^2)^0.25}
G_Lvar N003 Lout  LAPLACE { V(N003, Lout) } {1/(S*1e-6*({K3*1e6}-({K4}*LOG({K5}*(sqrt(-S*S)/(2*pi))))))}
*This large resistance to ground has been added to prevent a floating node error
R3 N003 0 100Meg
.ends Model1A


.subckt Coilcraft_Inductor Lin Lout
R1 Lout Lin 100Meg
.ends Coilcraft_Inductor
