*======================================================================
* SPICE Model generated by Coilcraft
* Coilcraft Part Number : XAL1510-472
* Inductance = 4.7uH
*======================================================================
* Model Parameters:
*   Valid Frequency Range = 0.1MHz-16MHz
*   Ambient Temperature = 25 degC
*   Inductor Frequency Model
*   Use model for Frequency Domain simulations
*======================================================================
.subckt XAL1510-472_freq port1 port2 PARAMS: Cpar=32.9pF Ind=4.7uH
X1 port1 port2 Model1A PARAMS:
+ R1=17.6
+ R2=0.00335
+ C= {Cpar}
+ K1=0.000344
+ K2=0.837
+ K3= {Ind}
+ K4=0.00822
+ K5=0.531
+ L=4.9342E-06
+ Is=101.009207
+ a=0.6585757
+ L_Z0=0
+ L_EL=0
+ L_F0=0E6
+ PkZ=2141.34455
.ends XAL1510-472_freq

*======================================================================
* SPICE Model generated by Coilcraft
* Coilcraft Part Number : XAL1510-472
* Inductance = 4.7uH
*======================================================================
* Model Parameters:
*   Valid Frequency Range = 0.1MHz-16MHz
*   Ambient Temperature = 25 degC
*   Inductor Saturation Model
*   Use model for Time Domain simulations
*======================================================================
.subckt XAL1510-472_sat port1 port2 PARAMS: Cpar=31.99pF Ind=4.7uH
X1 port1 port2 Model1C PARAMS:
+ R1=17.6
+ R2=0.00335
+ C= {Cpar}
+ K1=0.000344
+ K2=0.837
+ K3= {Ind}
+ K4=0.00822
+ K5=0.531
+ L=4.9342E-06
+ Is=101.009207
+ a=0.6585757
+ L_Z0=0
+ L_EL=0
+ L_F0=0E6
+ PkZ=2141.34455
.ends XAL1510-472_sat

*======================================================================
* SPICE Model generated by Coilcraft
* Coilcraft Part Number : XAL1510-682
* Inductance = 6.8uH
*======================================================================
* Model Parameters:
*   Valid Frequency Range = 0.1MHz-15MHz
*   Ambient Temperature = 25 degC
*   Inductor Frequency Model
*   Use model for Frequency Domain simulations
*======================================================================
.subckt XAL1510-682_freq port1 port2 PARAMS: Cpar=11.5pF Ind=6.8uH
X1 port1 port2 Model1A PARAMS:
+ R1=21.7
+ R2=0.00417
+ C= {Cpar}
+ K1=0.000001
+ K2=1.04
+ K3= {Ind}
+ K4=0.05
+ K5=0.027
+ L=6.3995E-06
+ Is=84.6109213
+ a=0.70080604
+ L_Z0=0
+ L_EL=0
+ L_F0=0E6
+ PkZ=3823.0183
.ends XAL1510-682_freq

*======================================================================
* SPICE Model generated by Coilcraft
* Coilcraft Part Number : XAL1510-682
* Inductance = 6.8uH
*======================================================================
* Model Parameters:
*   Valid Frequency Range = 0.1MHz-15MHz
*   Ambient Temperature = 25 degC
*   Inductor Saturation Model
*   Use model for Time Domain simulations
*======================================================================
.subckt XAL1510-682_sat port1 port2 PARAMS: Cpar=10.39pF Ind=6.8uH
X1 port1 port2 Model1C PARAMS:
+ R1=21.7
+ R2=0.00417
+ C= {Cpar}
+ K1=0.000001
+ K2=1.04
+ K3= {Ind}
+ K4=0.05
+ K5=0.027
+ L=6.3995E-06
+ Is=84.6109213
+ a=0.70080604
+ L_Z0=0
+ L_EL=0
+ L_F0=0E6
+ PkZ=3823.0183
.ends XAL1510-682_sat

*======================================================================
* SPICE Model generated by Coilcraft
* Coilcraft Part Number : XAL1510-822
* Inductance = 8.2uH
*======================================================================
* Model Parameters:
*   Valid Frequency Range = 0.1MHz-15MHz
*   Ambient Temperature = 25 degC
*   Inductor Frequency Model
*   Use model for Frequency Domain simulations
*======================================================================
.subckt XAL1510-822_freq port1 port2 PARAMS: Cpar=32.5pF Ind=8.2uH
X1 port1 port2 Model1A PARAMS:
+ R1=13.1
+ R2=0.006
+ C= {Cpar}
+ K1=0.000001
+ K2=1.15
+ K3= {Ind}
+ K4=0.0461
+ K5=1
+ L=7.7914E-06
+ Is=69.989551
+ a=0.71095621
+ L_Z0=0
+ L_EL=0
+ L_F0=0E6
+ PkZ=3039.21078
.ends XAL1510-822_freq

*======================================================================
* SPICE Model generated by Coilcraft
* Coilcraft Part Number : XAL1510-822
* Inductance = 8.2uH
*======================================================================
* Model Parameters:
*   Valid Frequency Range = 0.1MHz-15MHz
*   Ambient Temperature = 25 degC
*   Inductor Saturation Model
*   Use model for Time Domain simulations
*======================================================================
.subckt XAL1510-822_sat port1 port2 PARAMS: Cpar=29.56pF Ind=8.2uH
X1 port1 port2 Model1C PARAMS:
+ R1=13.1
+ R2=0.006
+ C= {Cpar}
+ K1=0.000001
+ K2=1.15
+ K3= {Ind}
+ K4=0.0461
+ K5=1
+ L=7.7914E-06
+ Is=69.989551
+ a=0.71095621
+ L_Z0=0
+ L_EL=0
+ L_F0=0E6
+ PkZ=3039.21078
.ends XAL1510-822_sat

*======================================================================
* SPICE Model generated by Coilcraft
* Coilcraft Part Number : XAL1510-103
* Inductance = 10uH
*======================================================================
* Model Parameters:
*   Valid Frequency Range = 0.1MHz-15MHz
*   Ambient Temperature = 25 degC
*   Inductor Frequency Model
*   Use model for Frequency Domain simulations
*======================================================================
.subckt XAL1510-103_freq port1 port2 PARAMS: Cpar=33.32pF Ind=10uH
X1 port1 port2 Model1A PARAMS:
+ R1=13.1
+ R2=0.0068
+ C= {Cpar}
+ K1=0.000001
+ K2=1.41
+ K3= {Ind}
+ K4=0.06
+ K5=1
+ L=9.0288E-06
+ Is=70.2666166
+ a=0.71857642
+ L_Z0=0
+ L_EL=0
+ L_F0=0E6
+ PkZ=3540.15828
.ends XAL1510-103_freq

*======================================================================
* SPICE Model generated by Coilcraft
* Coilcraft Part Number : XAL1510-103
* Inductance = 10uH
*======================================================================
* Model Parameters:
*   Valid Frequency Range = 0.1MHz-15MHz
*   Ambient Temperature = 25 degC
*   Inductor Saturation Model
*   Use model for Time Domain simulations
*======================================================================
.subckt XAL1510-103_sat port1 port2 PARAMS: Cpar=30.13pF Ind=10uH
X1 port1 port2 Model1C PARAMS:
+ R1=13.1
+ R2=0.0068
+ C= {Cpar}
+ K1=0.000001
+ K2=1.41
+ K3= {Ind}
+ K4=0.06
+ K5=1
+ L=9.0288E-06
+ Is=70.2666166
+ a=0.71857642
+ L_Z0=0
+ L_EL=0
+ L_F0=0E6
+ PkZ=3540.15828
.ends XAL1510-103_sat

*======================================================================
* SPICE Model generated by Coilcraft
* Coilcraft Part Number : XAL1510-153
* Inductance = 15uH
*======================================================================
* Model Parameters:
*   Valid Frequency Range = 0.1MHz-12MHz
*   Ambient Temperature = 25 degC
*   Inductor Frequency Model
*   Use model for Frequency Domain simulations
*======================================================================
.subckt XAL1510-153_freq port1 port2 PARAMS: Cpar=35.1pF Ind=15uH
X1 port1 port2 Model1A PARAMS:
+ R1=21.2
+ R2=0.00917
+ C= {Cpar}
+ K1=0.000312
+ K2=2.39
+ K3= {Ind}
+ K4=0.173
+ K5=0.00225
+ L=1.3149E-05
+ Is=61.1790563
+ a=0.70083356
+ L_Z0=0
+ L_EL=0
+ L_F0=0E6
+ PkZ=4711.13756
.ends XAL1510-153_freq

*======================================================================
* SPICE Model generated by Coilcraft
* Coilcraft Part Number : XAL1510-153
* Inductance = 15uH
*======================================================================
* Model Parameters:
*   Valid Frequency Range = 0.1MHz-12MHz
*   Ambient Temperature = 25 degC
*   Inductor Saturation Model
*   Use model for Time Domain simulations
*======================================================================
.subckt XAL1510-153_sat port1 port2 PARAMS: Cpar=31.19pF Ind=15uH
X1 port1 port2 Model1C PARAMS:
+ R1=21.2
+ R2=0.00917
+ C= {Cpar}
+ K1=0.000312
+ K2=2.39
+ K3= {Ind}
+ K4=0.173
+ K5=0.00225
+ L=1.3149E-05
+ Is=61.1790563
+ a=0.70083356
+ L_Z0=0
+ L_EL=0
+ L_F0=0E6
+ PkZ=4711.13756
.ends XAL1510-153_sat

*======================================================================
* SPICE Model generated by Coilcraft
* Coilcraft Part Number : XAL1510-223
* Inductance = 22uH
*======================================================================
* Model Parameters:
*   Valid Frequency Range = 0.1MHz-9MHz
*   Ambient Temperature = 25 degC
*   Inductor Frequency Model
*   Use model for Frequency Domain simulations
*======================================================================
.subckt XAL1510-223_freq port1 port2 PARAMS: Cpar=34.8pF Ind=22uH
X1 port1 port2 Model1A PARAMS:
+ R1=23.7
+ R2=0.0145
+ C= {Cpar}
+ K1=0.000312
+ K2=3.67
+ K3= {Ind}
+ K4=0.211
+ K5=0.354
+ L=2.0538E-05
+ Is=43.8623068
+ a=0.69808998
+ L_Z0=0
+ L_EL=0
+ L_F0=0E6
+ PkZ=6476.98355
.ends XAL1510-223_freq

*======================================================================
* SPICE Model generated by Coilcraft
* Coilcraft Part Number : XAL1510-223
* Inductance = 22uH
*======================================================================
* Model Parameters:
*   Valid Frequency Range = 0.1MHz-9MHz
*   Ambient Temperature = 25 degC
*   Inductor Saturation Model
*   Use model for Time Domain simulations
*======================================================================
.subckt XAL1510-223_sat port1 port2 PARAMS: Cpar=29.95pF Ind=22uH
X1 port1 port2 Model1C PARAMS:
+ R1=23.7
+ R2=0.0145
+ C= {Cpar}
+ K1=0.000312
+ K2=3.67
+ K3= {Ind}
+ K4=0.211
+ K5=0.354
+ L=2.0538E-05
+ Is=43.8623068
+ a=0.69808998
+ L_Z0=0
+ L_EL=0
+ L_F0=0E6
+ PkZ=6476.98355
.ends XAL1510-223_sat

*======================================================================
* SPICE Model generated by Coilcraft
* Coilcraft Part Number : XAL1510-333
* Inductance = 33uH
*======================================================================
* Model Parameters:
*   Valid Frequency Range = 0.1MHz-8MHz
*   Ambient Temperature = 25 degC
*   Inductor Frequency Model
*   Use model for Frequency Domain simulations
*======================================================================
.subckt XAL1510-333_freq port1 port2 PARAMS: Cpar=34.9pF Ind=33uH
X1 port1 port2 Model1A PARAMS:
+ R1=34.2
+ R2=0.0187
+ C= {Cpar}
+ K1=0.000001
+ K2=3.9
+ K3= {Ind}
+ K4=0.209
+ K5=0.0923
+ L=3.1865E-05
+ Is=36.3124643
+ a=0.70942718
+ L_Z0=0
+ L_EL=0
+ L_F0=0E6
+ PkZ=6440.9002
.ends XAL1510-333_freq

*======================================================================
* SPICE Model generated by Coilcraft
* Coilcraft Part Number : XAL1510-333
* Inductance = 33uH
*======================================================================
* Model Parameters:
*   Valid Frequency Range = 0.1MHz-8MHz
*   Ambient Temperature = 25 degC
*   Inductor Saturation Model
*   Use model for Time Domain simulations
*======================================================================
.subckt XAL1510-333_sat port1 port2 PARAMS: Cpar=32.03pF Ind=33uH
X1 port1 port2 Model1C PARAMS:
+ R1=34.2
+ R2=0.0187
+ C= {Cpar}
+ K1=0.000001
+ K2=3.9
+ K3= {Ind}
+ K4=0.209
+ K5=0.0923
+ L=3.1865E-05
+ Is=36.3124643
+ a=0.70942718
+ L_Z0=0
+ L_EL=0
+ L_F0=0E6
+ PkZ=6440.9002
.ends XAL1510-333_sat

*======================================================================
* SPICE Model generated by Coilcraft
* Coilcraft Saturation Inductor Model
*======================================================================
* Model Parameters:
*   Valid Frequency Range Varies by Inductor
*   Ambient Temperature = 25 degC
*   Current Saturable Inductor Model
*======================================================================
.subckt Model1C Lin Lout PARAMS:
+ R1=1
+ R2=1
+ C=1
+ L=1
+ Is=1
+ a=1
+ PkZ=94.2 * {L} *1e6
R2 N001 Lin {R2}
R3 Lout N001 {PkZ}
C1 N002 N001 {C}
R1 Lout N002 {R1}
E1 N003 N001 N004 0 1
G1 0 N004 VALUE={{L*Is}*tanh((I(E1)/{Is})**{a})**{1/a}}
L1 N004 0 1
E2 N003 Lout N005 0 1
G2 0 N005 VALUE={{L*Is}*tanh((I(E2)/{Is})**{a})**{1/a}}
L2 N005 0 1
.ends Model1C
*======================================================================
* SPICE Model generated by Coilcraft
* Coilcraft Power Inductor Model
*======================================================================
* Model Parameters:
*   Valid Frequency Range Varies by Inductor
*   Ambient Temperature = 25 degC
*   DC Bias Current = 0 A
*   Frequency Dependent Inductor Model
*======================================================================
.subckt Model1A Lin Lout PARAMS:
+ R1=1
+ R2=1
+ C=1
+ K1=1
+ K2=1
+ K3=1
+ K4=1
+ K5=1
R2 N001 Lin {R2}
R1 Lout N002 {R1}
C1 N002 N001 {C}
G_Rvar2 N001 Lout LAPLACE { V(N001, Lout) } {1/K2/(-S*S/4/PI^2)^0.25}
G_Rvar1 N001 N003 LAPLACE { V(N001, N003) } {1/K1/(-S*S/4/PI^2)^0.25}
G_Lvar N003 Lout  LAPLACE { V(N003, Lout) } {1/(S*1e-6*({K3*1e6}-({K4}*LOG({K5}*(sqrt(-S*S)/(2*pi))))))}
*This large resistance to ground has been added to prevent a floating node error
R3 N003 0 100Meg
.ends Model1A


.subckt Coilcraft_Inductor Lin Lout
R1 Lout Lin 100Meg
.ends Coilcraft_Inductor
