*======================================================================
* SPICE Model generated by Coilcraft
* Coilcraft Part Number : XAL4020-221
* Inductance = 0.22uH
*======================================================================
* Model Parameters:
*   Valid Frequency Range = 0.1MHz-300MHz
*   Ambient Temperature = 25 degC
*   Inductor Frequency Model
*   Use model for Frequency Domain simulations
*======================================================================
.subckt XAL4020-221_freq port1 port2 PARAMS: Cpar=4.2pF Ind=0.22uH
X1 port1 port2 Model1A PARAMS:
+ R1=5
+ R2=0.00581
+ C= {Cpar}
+ K1=0.0000005
+ K2=0.022
+ K3= {Ind}
+ K4=0.000009
+ K5=0.000008
+ L=2.3675E-07
+ Is=40.4988261
+ a=0.71318996
+ L_Z0=0
+ L_EL=0
+ L_F0=0E6
+ PkZ=275.653003
.ends XAL4020-221_freq

*======================================================================
* SPICE Model generated by Coilcraft
* Coilcraft Part Number : XAL4020-221
* Inductance = 0.22uH
*======================================================================
* Model Parameters:
*   Valid Frequency Range = 0.1MHz-300MHz
*   Ambient Temperature = 25 degC
*   Inductor Saturation Model
*   Use model for Time Domain simulations
*======================================================================
.subckt XAL4020-221_sat port1 port2 PARAMS: Cpar=4.20pF Ind=0.22uH
X1 port1 port2 Model1C PARAMS:
+ R1=5
+ R2=0.00581
+ C= {Cpar}
+ K1=0.0000005
+ K2=0.022
+ K3= {Ind}
+ K4=0.000009
+ K5=0.000008
+ L=2.3675E-07
+ Is=40.4988261
+ a=0.71318996
+ L_Z0=0
+ L_EL=0
+ L_F0=0E6
+ PkZ=275.653003
.ends XAL4020-221_sat

*======================================================================
* SPICE Model generated by Coilcraft
* Coilcraft Part Number : XAL4020-401
* Inductance = 0.4uH
*======================================================================
* Model Parameters:
*   Valid Frequency Range = 0.1MHz-300MHz
*   Ambient Temperature = 25 degC
*   Inductor Frequency Model
*   Use model for Frequency Domain simulations
*======================================================================
.subckt XAL4020-401_freq port1 port2 PARAMS: Cpar=3.1pF Ind=0.4uH
X1 port1 port2 Model1A PARAMS:
+ R1=5
+ R2=0.00755
+ C= {Cpar}
+ K1=0.00015
+ K2=0.035
+ K3= {Ind}
+ K4=0.001
+ K5=0.0000004
+ L=4.0245E-07
+ Is=35.0125845
+ a=0.65854024
+ L_Z0=0
+ L_EL=0
+ L_F0=0E6
+ PkZ=410.342388
.ends XAL4020-401_freq

*======================================================================
* SPICE Model generated by Coilcraft
* Coilcraft Part Number : XAL4020-401
* Inductance = 0.4uH
*======================================================================
* Model Parameters:
*   Valid Frequency Range = 0.1MHz-300MHz
*   Ambient Temperature = 25 degC
*   Inductor Saturation Model
*   Use model for Time Domain simulations
*======================================================================
.subckt XAL4020-401_sat port1 port2 PARAMS: Cpar=3.07pF Ind=0.4uH
X1 port1 port2 Model1C PARAMS:
+ R1=5
+ R2=0.00755
+ C= {Cpar}
+ K1=0.00015
+ K2=0.035
+ K3= {Ind}
+ K4=0.001
+ K5=0.0000004
+ L=4.0245E-07
+ Is=35.0125845
+ a=0.65854024
+ L_Z0=0
+ L_EL=0
+ L_F0=0E6
+ PkZ=410.342388
.ends XAL4020-401_sat

*======================================================================
* SPICE Model generated by Coilcraft
* Coilcraft Part Number : XAL4020-601
* Inductance = 0.6uH
*======================================================================
* Model Parameters:
*   Valid Frequency Range = 0.1MHz-300MHz
*   Ambient Temperature = 25 degC
*   Inductor Frequency Model
*   Use model for Frequency Domain simulations
*======================================================================
.subckt XAL4020-601_freq port1 port2 PARAMS: Cpar=4.3pF Ind=0.6uH
X1 port1 port2 Model1A PARAMS:
+ R1=6
+ R2=0.0095
+ C= {Cpar}
+ K1=0.00015
+ K2=0.056
+ K3= {Ind}
+ K4=0.0005
+ K5=0.00000001
+ L=5.9499E-07
+ Is=27.6956947
+ a=0.70036264
+ L_Z0=0
+ L_EL=0
+ L_F0=0E6
+ PkZ=541.243954
.ends XAL4020-601_freq

*======================================================================
* SPICE Model generated by Coilcraft
* Coilcraft Part Number : XAL4020-601
* Inductance = 0.6uH
*======================================================================
* Model Parameters:
*   Valid Frequency Range = 0.1MHz-300MHz
*   Ambient Temperature = 25 degC
*   Inductor Saturation Model
*   Use model for Time Domain simulations
*======================================================================
.subckt XAL4020-601_sat port1 port2 PARAMS: Cpar=4.30pF Ind=0.6uH
X1 port1 port2 Model1C PARAMS:
+ R1=6
+ R2=0.0095
+ C= {Cpar}
+ K1=0.00015
+ K2=0.056
+ K3= {Ind}
+ K4=0.0005
+ K5=0.00000001
+ L=5.9499E-07
+ Is=27.6956947
+ a=0.70036264
+ L_Z0=0
+ L_EL=0
+ L_F0=0E6
+ PkZ=541.243954
.ends XAL4020-601_sat

*======================================================================
* SPICE Model generated by Coilcraft
* Coilcraft Part Number : XAL4020-102
* Inductance = 1uH
*======================================================================
* Model Parameters:
*   Valid Frequency Range = 0.1MHz-300MHz
*   Ambient Temperature = 25 degC
*   Inductor Frequency Model
*   Use model for Frequency Domain simulations
*======================================================================
.subckt XAL4020-102_freq port1 port2 PARAMS: Cpar=3.7pF Ind=1uH
X1 port1 port2 Model1A PARAMS:
+ R1=10
+ R2=0.01325
+ C= {Cpar}
+ K1=0.00005
+ K2=0.24
+ K3= {Ind}
+ K4=0.008
+ K5=0.000009
+ L=9.5524E-07
+ Is=25.1929548
+ a=0.63524574
+ L_Z0=0
+ L_EL=0
+ L_F0=0E6
+ PkZ=2029.48232
.ends XAL4020-102_freq

*======================================================================
* SPICE Model generated by Coilcraft
* Coilcraft Part Number : XAL4020-102
* Inductance = 1uH
*======================================================================
* Model Parameters:
*   Valid Frequency Range = 0.1MHz-300MHz
*   Ambient Temperature = 25 degC
*   Inductor Saturation Model
*   Use model for Time Domain simulations
*======================================================================
.subckt XAL4020-102_sat port1 port2 PARAMS: Cpar=3.50pF Ind=1uH
X1 port1 port2 Model1C PARAMS:
+ R1=10
+ R2=0.01325
+ C= {Cpar}
+ K1=0.00005
+ K2=0.24
+ K3= {Ind}
+ K4=0.008
+ K5=0.000009
+ L=9.5524E-07
+ Is=25.1929548
+ a=0.63524574
+ L_Z0=0
+ L_EL=0
+ L_F0=0E6
+ PkZ=2029.48232
.ends XAL4020-102_sat

*======================================================================
* SPICE Model generated by Coilcraft
* Coilcraft Part Number : XAL4020-152
* Inductance = 1.5uH
*======================================================================
* Model Parameters:
*   Valid Frequency Range = 0.1MHz-200MHz
*   Ambient Temperature = 25 degC
*   Inductor Frequency Model
*   Use model for Frequency Domain simulations
*======================================================================
.subckt XAL4020-152_freq port1 port2 PARAMS: Cpar=2.7pF Ind=1.5uH
X1 port1 port2 Model1A PARAMS:
+ R1=11
+ R2=0.02145
+ C= {Cpar}
+ K1=0.00005
+ K2=0.41
+ K3= {Ind}
+ K4=0.004
+ K5=0.000008
+ L=1.5536E-06
+ Is=21.4606005
+ a=0.58697644
+ L_Z0=0
+ L_EL=0
+ L_F0=0E6
+ PkZ=3400.94442
.ends XAL4020-152_freq

*======================================================================
* SPICE Model generated by Coilcraft
* Coilcraft Part Number : XAL4020-152
* Inductance = 1.5uH
*======================================================================
* Model Parameters:
*   Valid Frequency Range = 0.1MHz-200MHz
*   Ambient Temperature = 25 degC
*   Inductor Saturation Model
*   Use model for Time Domain simulations
*======================================================================
.subckt XAL4020-152_sat port1 port2 PARAMS: Cpar=2.65pF Ind=1.5uH
X1 port1 port2 Model1C PARAMS:
+ R1=11
+ R2=0.02145
+ C= {Cpar}
+ K1=0.00005
+ K2=0.41
+ K3= {Ind}
+ K4=0.004
+ K5=0.000008
+ L=1.5536E-06
+ Is=21.4606005
+ a=0.58697644
+ L_Z0=0
+ L_EL=0
+ L_F0=0E6
+ PkZ=3400.94442
.ends XAL4020-152_sat

*======================================================================
* SPICE Model generated by Coilcraft
* Coilcraft Part Number : XAL4020-222
* Inductance = 2.2uH
*======================================================================
* Model Parameters:
*   Valid Frequency Range = 0.1MHz-100MHz
*   Ambient Temperature = 25 degC
*   Inductor Frequency Model
*   Use model for Frequency Domain simulations
*======================================================================
.subckt XAL4020-222_freq port1 port2 PARAMS: Cpar=4.7pF Ind=2.2uH
X1 port1 port2 Model1A PARAMS:
+ R1=100
+ R2=0.0352
+ C= {Cpar}
+ K1=0.00016
+ K2=0.48
+ K3= {Ind}
+ K4=0.01
+ K5=0.000008
+ L=2.3209E-06
+ Is=17.6236131
+ a=0.59783743
+ L_Z0=0
+ L_EL=0
+ L_F0=0E6
+ PkZ=1951.37918
.ends XAL4020-222_freq

*======================================================================
* SPICE Model generated by Coilcraft
* Coilcraft Part Number : XAL4020-222
* Inductance = 2.2uH
*======================================================================
* Model Parameters:
*   Valid Frequency Range = 0.1MHz-100MHz
*   Ambient Temperature = 25 degC
*   Inductor Saturation Model
*   Use model for Time Domain simulations
*======================================================================
.subckt XAL4020-222_sat port1 port2 PARAMS: Cpar=4.57pF Ind=2.2uH
X1 port1 port2 Model1C PARAMS:
+ R1=100
+ R2=0.0352
+ C= {Cpar}
+ K1=0.00016
+ K2=0.48
+ K3= {Ind}
+ K4=0.01
+ K5=0.000008
+ L=2.3209E-06
+ Is=17.6236131
+ a=0.59783743
+ L_Z0=0
+ L_EL=0
+ L_F0=0E6
+ PkZ=1951.37918
.ends XAL4020-222_sat

*======================================================================
* SPICE Model generated by Coilcraft
* Coilcraft Saturation Inductor Model
*======================================================================
* Model Parameters:
*   Valid Frequency Range Varies by Inductor
*   Ambient Temperature = 25 degC
*   Current Saturable Inductor Model
*======================================================================
.subckt Model1C Lin Lout PARAMS:
+ R1=1
+ R2=1
+ C=1
+ L=1
+ Is=1
+ a=1
+ PkZ=94.2 * {L} *1e6
R2 N001 Lin {R2}
R3 Lout N001 {PkZ}
C1 N002 N001 {C}
R1 Lout N002 {R1}
E1 N003 N001 N004 0 1
G1 0 N004 VALUE={{L*Is}*tanh((I(E1)/{Is})**{a})**{1/a}}
L1 N004 0 1
E2 N003 Lout N005 0 1
G2 0 N005 VALUE={{L*Is}*tanh((I(E2)/{Is})**{a})**{1/a}}
L2 N005 0 1
.ends Model1C
*======================================================================
* SPICE Model generated by Coilcraft
* Coilcraft Power Inductor Model
*======================================================================
* Model Parameters:
*   Valid Frequency Range Varies by Inductor
*   Ambient Temperature = 25 degC
*   DC Bias Current = 0 A
*   Frequency Dependent Inductor Model
*======================================================================
.subckt Model1A Lin Lout PARAMS:
+ R1=1
+ R2=1
+ C=1
+ K1=1
+ K2=1
+ K3=1
+ K4=1
+ K5=1
R2 N001 Lin {R2}
R1 Lout N002 {R1}
C1 N002 N001 {C}
G_Rvar2 N001 Lout LAPLACE { V(N001, Lout) } {1/K2/(-S*S/4/PI^2)^0.25}
G_Rvar1 N001 N003 LAPLACE { V(N001, N003) } {1/K1/(-S*S/4/PI^2)^0.25}
G_Lvar N003 Lout  LAPLACE { V(N003, Lout) } {1/(S*1e-6*({K3*1e6}-({K4}*LOG({K5}*(sqrt(-S*S)/(2*pi))))))}
*This large resistance to ground has been added to prevent a floating node error
R3 N003 0 100Meg
.ends Model1A


.subckt Coilcraft_Inductor Lin Lout
R1 Lout Lin 100Meg
.ends Coilcraft_Inductor
