*======================================================================
* SPICE Model generated by Coilcraft
* Coilcraft Part Number : XAL4030-332
* Inductance = 3.3uH
*======================================================================
* Model Parameters:
*   Valid Frequency Range = 0.1MHz-200MHz
*   Ambient Temperature = 25 degC
*   Inductor Frequency Model
*   Use model for Frequency Domain simulations
*======================================================================
.subckt XAL4030-332_freq port1 port2 PARAMS: Cpar=4.7pF Ind=3.3uH
X1 port1 port2 Model1A PARAMS:
+ R1=7.5
+ R2=0.026
+ C= {Cpar}
+ K1=0.0001
+ K2=0.35
+ K3= {Ind}
+ K4=0.007
+ K5=0.0000065
+ L=2.9998E-06
+ Is=14.3654434
+ a=0.66147907
+ L_Z0=0
+ L_EL=0
+ L_F0=0E6
+ PkZ=2174.70874
.ends XAL4030-332_freq

*======================================================================
* SPICE Model generated by Coilcraft
* Coilcraft Part Number : XAL4030-332
* Inductance = 3.3uH
*======================================================================
* Model Parameters:
*   Valid Frequency Range = 0.1MHz-200MHz
*   Ambient Temperature = 25 degC
*   Inductor Saturation Model
*   Use model for Time Domain simulations
*======================================================================
.subckt XAL4030-332_sat port1 port2 PARAMS: Cpar=4.64pF Ind=3.3uH
X1 port1 port2 Model1C PARAMS:
+ R1=7.5
+ R2=0.026
+ C= {Cpar}
+ K1=0.0001
+ K2=0.35
+ K3= {Ind}
+ K4=0.007
+ K5=0.0000065
+ L=2.9998E-06
+ Is=14.3654434
+ a=0.66147907
+ L_Z0=0
+ L_EL=0
+ L_F0=0E6
+ PkZ=2174.70874
.ends XAL4030-332_sat

*======================================================================
* SPICE Model generated by Coilcraft
* Coilcraft Part Number : XAL4030-472
* Inductance = 4.7uH
*======================================================================
* Model Parameters:
*   Valid Frequency Range = 0.1MHz-100MHz
*   Ambient Temperature = 25 degC
*   Inductor Frequency Model
*   Use model for Frequency Domain simulations
*======================================================================
.subckt XAL4030-472_freq port1 port2 PARAMS: Cpar=3pF Ind=4.7uH
X1 port1 port2 Model1A PARAMS:
+ R1=6
+ R2=0.0401
+ C= {Cpar}
+ K1=0.0003
+ K2=1.5
+ K3= {Ind}
+ K4=0.009
+ K5=0.000008
+ L=4.528E-06
+ Is=10.6655893
+ a=0.67493672
+ L_Z0=0
+ L_EL=0
+ L_F0=0E6
+ PkZ=9323.94369
.ends XAL4030-472_freq

*======================================================================
* SPICE Model generated by Coilcraft
* Coilcraft Part Number : XAL4030-472
* Inductance = 4.7uH
*======================================================================
* Model Parameters:
*   Valid Frequency Range = 0.1MHz-100MHz
*   Ambient Temperature = 25 degC
*   Inductor Saturation Model
*   Use model for Time Domain simulations
*======================================================================
.subckt XAL4030-472_sat port1 port2 PARAMS: Cpar=2.97pF Ind=4.7uH
X1 port1 port2 Model1C PARAMS:
+ R1=6
+ R2=0.0401
+ C= {Cpar}
+ K1=0.0003
+ K2=1.5
+ K3= {Ind}
+ K4=0.009
+ K5=0.000008
+ L=4.528E-06
+ Is=10.6655893
+ a=0.67493672
+ L_Z0=0
+ L_EL=0
+ L_F0=0E6
+ PkZ=9323.94369
.ends XAL4030-472_sat

*======================================================================
* SPICE Model generated by Coilcraft
* Coilcraft Part Number : XAL4030-682
* Inductance = 6.8uH
*======================================================================
* Model Parameters:
*   Valid Frequency Range = 0.1MHz-90MHz
*   Ambient Temperature = 25 degC
*   Inductor Frequency Model
*   Use model for Frequency Domain simulations
*======================================================================
.subckt XAL4030-682_freq port1 port2 PARAMS: Cpar=7.6pF Ind=6.8uH
X1 port1 port2 Model1A PARAMS:
+ R1=5
+ R2=0.0674
+ C= {Cpar}
+ K1=0.00075
+ K2=2
+ K3= {Ind}
+ K4=0.008
+ K5=0.000005
+ L=6.8026E-06
+ Is=11.2953676
+ a=0.58062832
+ L_Z0=0
+ L_EL=0
+ L_F0=0E6
+ PkZ=8642.48399
.ends XAL4030-682_freq

*======================================================================
* SPICE Model generated by Coilcraft
* Coilcraft Part Number : XAL4030-682
* Inductance = 6.8uH
*======================================================================
* Model Parameters:
*   Valid Frequency Range = 0.1MHz-90MHz
*   Ambient Temperature = 25 degC
*   Inductor Saturation Model
*   Use model for Time Domain simulations
*======================================================================
.subckt XAL4030-682_sat port1 port2 PARAMS: Cpar=7.56pF Ind=6.8uH
X1 port1 port2 Model1C PARAMS:
+ R1=5
+ R2=0.0674
+ C= {Cpar}
+ K1=0.00075
+ K2=2
+ K3= {Ind}
+ K4=0.008
+ K5=0.000005
+ L=6.8026E-06
+ Is=11.2953676
+ a=0.58062832
+ L_Z0=0
+ L_EL=0
+ L_F0=0E6
+ PkZ=8642.48399
.ends XAL4030-682_sat

*======================================================================
* SPICE Model generated by Coilcraft
* Coilcraft Saturation Inductor Model
*======================================================================
* Model Parameters:
*   Valid Frequency Range Varies by Inductor
*   Ambient Temperature = 25 degC
*   Current Saturable Inductor Model
*======================================================================
.subckt Model1C Lin Lout PARAMS:
+ R1=1
+ R2=1
+ C=1
+ L=1
+ Is=1
+ a=1
+ PkZ=94.2 * {L} *1e6
R2 N001 Lin {R2}
R3 Lout N001 {PkZ}
C1 N002 N001 {C}
R1 Lout N002 {R1}
E1 N003 N001 N004 0 1
G1 0 N004 VALUE={{L*Is}*tanh((I(E1)/{Is})**{a})**{1/a}}
L1 N004 0 1
E2 N003 Lout N005 0 1
G2 0 N005 VALUE={{L*Is}*tanh((I(E2)/{Is})**{a})**{1/a}}
L2 N005 0 1
.ends Model1C
*======================================================================
* SPICE Model generated by Coilcraft
* Coilcraft Power Inductor Model
*======================================================================
* Model Parameters:
*   Valid Frequency Range Varies by Inductor
*   Ambient Temperature = 25 degC
*   DC Bias Current = 0 A
*   Frequency Dependent Inductor Model
*======================================================================
.subckt Model1A Lin Lout PARAMS:
+ R1=1
+ R2=1
+ C=1
+ K1=1
+ K2=1
+ K3=1
+ K4=1
+ K5=1
R2 N001 Lin {R2}
R1 Lout N002 {R1}
C1 N002 N001 {C}
G_Rvar2 N001 Lout LAPLACE { V(N001, Lout) } {1/K2/(-S*S/4/PI^2)^0.25}
G_Rvar1 N001 N003 LAPLACE { V(N001, N003) } {1/K1/(-S*S/4/PI^2)^0.25}
G_Lvar N003 Lout  LAPLACE { V(N003, Lout) } {1/(S*1e-6*({K3*1e6}-({K4}*LOG({K5}*(sqrt(-S*S)/(2*pi))))))}
*This large resistance to ground has been added to prevent a floating node error
R3 N003 0 100Meg
.ends Model1A


.subckt Coilcraft_Inductor Lin Lout
R1 Lout Lin 100Meg
.ends Coilcraft_Inductor
