*======================================================================
* SPICE Model generated by Coilcraft
* Coilcraft Part Number : XAL5050-562
* Inductance = 5.6uH
*======================================================================
* Model Parameters:
*   Valid Frequency Range = 0.1MHz-100MHz
*   Ambient Temperature = 25 degC
*   Inductor Frequency Model
*   Use model for Frequency Domain simulations
*======================================================================
.subckt XAL5050-562_freq port1 port2 PARAMS: Cpar=4.6pF Ind=5.6uH
X1 port1 port2 Model1A PARAMS:
+ R1=5
+ R2=0.02345
+ C= {Cpar}
+ K1=0.0003
+ K2=1.5
+ K3= {Ind}
+ K4=0.009
+ K5=0.000008
+ L=5.6331E-06
+ Is=11.3455054
+ a=0.81845065
+ L_Z0=0
+ L_EL=0
+ L_F0=0E6
+ PkZ=8043.41199
.ends XAL5050-562_freq

*======================================================================
* SPICE Model generated by Coilcraft
* Coilcraft Part Number : XAL5050-562
* Inductance = 5.6uH
*======================================================================
* Model Parameters:
*   Valid Frequency Range = 0.1MHz-100MHz
*   Ambient Temperature = 25 degC
*   Inductor Saturation Model
*   Use model for Time Domain simulations
*======================================================================
.subckt XAL5050-562_sat port1 port2 PARAMS: Cpar=4.56pF Ind=5.6uH
X1 port1 port2 Model1C PARAMS:
+ R1=5
+ R2=0.02345
+ C= {Cpar}
+ K1=0.0003
+ K2=1.5
+ K3= {Ind}
+ K4=0.009
+ K5=0.000008
+ L=5.6331E-06
+ Is=11.3455054
+ a=0.81845065
+ L_Z0=0
+ L_EL=0
+ L_F0=0E6
+ PkZ=8043.41199
.ends XAL5050-562_sat

*======================================================================
* SPICE Model generated by Coilcraft
* Coilcraft Part Number : XAL5050-682
* Inductance = 6.8uH
*======================================================================
* Model Parameters:
*   Valid Frequency Range = 0.1MHz-90MHz
*   Ambient Temperature = 25 degC
*   Inductor Frequency Model
*   Use model for Frequency Domain simulations
*======================================================================
.subckt XAL5050-682_freq port1 port2 PARAMS: Cpar=7.6pF Ind=6.8uH
X1 port1 port2 Model1A PARAMS:
+ R1=5
+ R2=0.02675
+ C= {Cpar}
+ K1=0.0009
+ K2=2
+ K3= {Ind}
+ K4=0.005
+ K5=0.000003
+ L=6.9076E-06
+ Is=9.98835395
+ a=0.80511562
+ L_Z0=0
+ L_EL=0
+ L_F0=0E6
+ PkZ=8580.8072
.ends XAL5050-682_freq

*======================================================================
* SPICE Model generated by Coilcraft
* Coilcraft Part Number : XAL5050-682
* Inductance = 6.8uH
*======================================================================
* Model Parameters:
*   Valid Frequency Range = 0.1MHz-90MHz
*   Ambient Temperature = 25 degC
*   Inductor Saturation Model
*   Use model for Time Domain simulations
*======================================================================
.subckt XAL5050-682_sat port1 port2 PARAMS: Cpar=7.58pF Ind=6.8uH
X1 port1 port2 Model1C PARAMS:
+ R1=5
+ R2=0.02675
+ C= {Cpar}
+ K1=0.0009
+ K2=2
+ K3= {Ind}
+ K4=0.005
+ K5=0.000003
+ L=6.9076E-06
+ Is=9.98835395
+ a=0.80511562
+ L_Z0=0
+ L_EL=0
+ L_F0=0E6
+ PkZ=8580.8072
.ends XAL5050-682_sat

*======================================================================
* SPICE Model generated by Coilcraft
* Coilcraft Part Number : XAL5050-822
* Inductance = 8.2uH
*======================================================================
* Model Parameters:
*   Valid Frequency Range = 0.1MHz-100MHz
*   Ambient Temperature = 25 degC
*   Inductor Frequency Model
*   Use model for Frequency Domain simulations
*======================================================================
.subckt XAL5050-822_freq port1 port2 PARAMS: Cpar=8.9pF Ind=8.2uH
X1 port1 port2 Model1A PARAMS:
+ R1=15
+ R2=0.03175
+ C= {Cpar}
+ K1=0.000025
+ K2=0.91
+ K3= {Ind}
+ K4=0.008
+ K5=0.000007
+ L=8.0617E-06
+ Is=10.8772074
+ a=0.79915485
+ L_Z0=0
+ L_EL=0
+ L_F0=0E6
+ PkZ=3693.28568
.ends XAL5050-822_freq

*======================================================================
* SPICE Model generated by Coilcraft
* Coilcraft Part Number : XAL5050-822
* Inductance = 8.2uH
*======================================================================
* Model Parameters:
*   Valid Frequency Range = 0.1MHz-100MHz
*   Ambient Temperature = 25 degC
*   Inductor Saturation Model
*   Use model for Time Domain simulations
*======================================================================
.subckt XAL5050-822_sat port1 port2 PARAMS: Cpar=8.86pF Ind=8.2uH
X1 port1 port2 Model1C PARAMS:
+ R1=15
+ R2=0.03175
+ C= {Cpar}
+ K1=0.000025
+ K2=0.91
+ K3= {Ind}
+ K4=0.008
+ K5=0.000007
+ L=8.0617E-06
+ Is=10.8772074
+ a=0.79915485
+ L_Z0=0
+ L_EL=0
+ L_F0=0E6
+ PkZ=3693.28568
.ends XAL5050-822_sat

*======================================================================
* SPICE Model generated by Coilcraft
* Coilcraft Part Number : XAL5050-103
* Inductance = 10uH
*======================================================================
* Model Parameters:
*   Valid Frequency Range = 0.1MHz-100MHz
*   Ambient Temperature = 25 degC
*   Inductor Frequency Model
*   Use model for Frequency Domain simulations
*======================================================================
.subckt XAL5050-103_freq port1 port2 PARAMS: Cpar=8.9pF Ind=10uH
X1 port1 port2 Model1A PARAMS:
+ R1=15
+ R2=0.0409
+ C= {Cpar}
+ K1=0.000025
+ K2=1.2
+ K3= {Ind}
+ K4=0.009
+ K5=0.000007
+ L=1.0319E-05
+ Is=8.99946981
+ a=0.78386461
+ L_Z0=0
+ L_EL=0
+ L_F0=0E6
+ PkZ=4626.10247
.ends XAL5050-103_freq

*======================================================================
* SPICE Model generated by Coilcraft
* Coilcraft Part Number : XAL5050-103
* Inductance = 10uH
*======================================================================
* Model Parameters:
*   Valid Frequency Range = 0.1MHz-100MHz
*   Ambient Temperature = 25 degC
*   Inductor Saturation Model
*   Use model for Time Domain simulations
*======================================================================
.subckt XAL5050-103_sat port1 port2 PARAMS: Cpar=8.86pF Ind=10uH
X1 port1 port2 Model1C PARAMS:
+ R1=15
+ R2=0.0409
+ C= {Cpar}
+ K1=0.000025
+ K2=1.2
+ K3= {Ind}
+ K4=0.009
+ K5=0.000007
+ L=1.0319E-05
+ Is=8.99946981
+ a=0.78386461
+ L_Z0=0
+ L_EL=0
+ L_F0=0E6
+ PkZ=4626.10247
.ends XAL5050-103_sat

*======================================================================
* SPICE Model generated by Coilcraft
* Coilcraft Part Number : XAL5050-153
* Inductance = 15uH
*======================================================================
* Model Parameters:
*   Valid Frequency Range = 0.1MHz-60MHz
*   Ambient Temperature = 25 degC
*   Inductor Frequency Model
*   Use model for Frequency Domain simulations
*======================================================================
.subckt XAL5050-153_freq port1 port2 PARAMS: Cpar=10pF Ind=15uH
X1 port1 port2 Model1A PARAMS:
+ R1=15
+ R2=0.0697
+ C= {Cpar}
+ K1=0.000025
+ K2=1.9
+ K3= {Ind}
+ K4=0.001
+ K5=0.0000006
+ L=1.5594E-05
+ Is=7.64950213
+ a=0.71440976
+ L_Z0=0
+ L_EL=0
+ L_F0=0E6
+ PkZ=6407.97959
.ends XAL5050-153_freq

*======================================================================
* SPICE Model generated by Coilcraft
* Coilcraft Part Number : XAL5050-153
* Inductance = 15uH
*======================================================================
* Model Parameters:
*   Valid Frequency Range = 0.1MHz-60MHz
*   Ambient Temperature = 25 degC
*   Inductor Saturation Model
*   Use model for Time Domain simulations
*======================================================================
.subckt XAL5050-153_sat port1 port2 PARAMS: Cpar=10.00pF Ind=15uH
X1 port1 port2 Model1C PARAMS:
+ R1=15
+ R2=0.0697
+ C= {Cpar}
+ K1=0.000025
+ K2=1.9
+ K3= {Ind}
+ K4=0.001
+ K5=0.0000006
+ L=1.5594E-05
+ Is=7.64950213
+ a=0.71440976
+ L_Z0=0
+ L_EL=0
+ L_F0=0E6
+ PkZ=6407.97959
.ends XAL5050-153_sat

*======================================================================
* SPICE Model generated by Coilcraft
* Coilcraft Part Number : XAL5050-223
* Inductance = 22uH
*======================================================================
* Model Parameters:
*   Valid Frequency Range = 0.1MHz-80MHz
*   Ambient Temperature = 25 degC
*   Inductor Frequency Model
*   Use model for Frequency Domain simulations
*======================================================================
.subckt XAL5050-223_freq port1 port2 PARAMS: Cpar=8.2pF Ind=22uH
X1 port1 port2 Model1A PARAMS:
+ R1=6
+ R2=0.0906
+ C= {Cpar}
+ K1=0.002
+ K2=6.5
+ K3= {Ind}
+ K4=0.5
+ K5=0.00000975
+ L=2.1421E-05
+ Is=6.81608063
+ a=0.73471888
+ L_Z0=0
+ L_EL=0
+ L_F0=0E6
+ PkZ=20442.1181
.ends XAL5050-223_freq

*======================================================================
* SPICE Model generated by Coilcraft
* Coilcraft Part Number : XAL5050-223
* Inductance = 22uH
*======================================================================
* Model Parameters:
*   Valid Frequency Range = 0.1MHz-80MHz
*   Ambient Temperature = 25 degC
*   Inductor Saturation Model
*   Use model for Time Domain simulations
*======================================================================
.subckt XAL5050-223_sat port1 port2 PARAMS: Cpar=7.31pF Ind=22uH
X1 port1 port2 Model1C PARAMS:
+ R1=6
+ R2=0.0906
+ C= {Cpar}
+ K1=0.002
+ K2=6.5
+ K3= {Ind}
+ K4=0.5
+ K5=0.00000975
+ L=2.1421E-05
+ Is=6.81608063
+ a=0.73471888
+ L_Z0=0
+ L_EL=0
+ L_F0=0E6
+ PkZ=20442.1181
.ends XAL5050-223_sat

*======================================================================
* SPICE Model generated by Coilcraft
* Coilcraft Saturation Inductor Model
*======================================================================
* Model Parameters:
*   Valid Frequency Range Varies by Inductor
*   Ambient Temperature = 25 degC
*   Current Saturable Inductor Model
*======================================================================
.subckt Model1C Lin Lout PARAMS:
+ R1=1
+ R2=1
+ C=1
+ L=1
+ Is=1
+ a=1
+ PkZ=94.2 * {L} *1e6
R2 N001 Lin {R2}
R3 Lout N001 {PkZ}
C1 N002 N001 {C}
R1 Lout N002 {R1}
E1 N003 N001 N004 0 1
G1 0 N004 VALUE={{L*Is}*tanh((I(E1)/{Is})**{a})**{1/a}}
L1 N004 0 1
E2 N003 Lout N005 0 1
G2 0 N005 VALUE={{L*Is}*tanh((I(E2)/{Is})**{a})**{1/a}}
L2 N005 0 1
.ends Model1C
*======================================================================
* SPICE Model generated by Coilcraft
* Coilcraft Power Inductor Model
*======================================================================
* Model Parameters:
*   Valid Frequency Range Varies by Inductor
*   Ambient Temperature = 25 degC
*   DC Bias Current = 0 A
*   Frequency Dependent Inductor Model
*======================================================================
.subckt Model1A Lin Lout PARAMS:
+ R1=1
+ R2=1
+ C=1
+ K1=1
+ K2=1
+ K3=1
+ K4=1
+ K5=1
R2 N001 Lin {R2}
R1 Lout N002 {R1}
C1 N002 N001 {C}
G_Rvar2 N001 Lout LAPLACE { V(N001, Lout) } {1/K2/(-S*S/4/PI^2)^0.25}
G_Rvar1 N001 N003 LAPLACE { V(N001, N003) } {1/K1/(-S*S/4/PI^2)^0.25}
G_Lvar N003 Lout  LAPLACE { V(N003, Lout) } {1/(S*1e-6*({K3*1e6}-({K4}*LOG({K5}*(sqrt(-S*S)/(2*pi))))))}
*This large resistance to ground has been added to prevent a floating node error
R3 N003 0 100Meg
.ends Model1A


.subckt Coilcraft_Inductor Lin Lout
R1 Lout Lin 100Meg
.ends Coilcraft_Inductor
