*======================================================================
* SPICE Model generated by Coilcraft
* Coilcraft Part Number : XAL5030-161
* Inductance = 0.16uH
*======================================================================
* Model Parameters:
*   Valid Frequency Range = 0.1MHz-300MHz
*   Ambient Temperature = 25 degC
*   Inductor Frequency Model
*   Use model for Frequency Domain simulations
*======================================================================
.subckt XAL5030-161_freq port1 port2 PARAMS: Cpar=4.3pF Ind=0.16uH
X1 port1 port2 Model1A PARAMS:
+ R1=5
+ R2=0.00215
+ C= {Cpar}
+ K1=0.00005
+ K2=0.016
+ K3= {Ind}
+ K4=0.001
+ K5=0.000005
+ L=1.7168E-07
+ Is=69.5885255
+ a=0.73032281
+ L_Z0=0
+ L_EL=0
+ L_F0=0E6
+ PkZ=216.323863
.ends XAL5030-161_freq

*======================================================================
* SPICE Model generated by Coilcraft
* Coilcraft Part Number : XAL5030-161
* Inductance = 0.16uH
*======================================================================
* Model Parameters:
*   Valid Frequency Range = 0.1MHz-300MHz
*   Ambient Temperature = 25 degC
*   Inductor Saturation Model
*   Use model for Time Domain simulations
*======================================================================
.subckt XAL5030-161_sat port1 port2 PARAMS: Cpar=4.12pF Ind=0.16uH
X1 port1 port2 Model1C PARAMS:
+ R1=5
+ R2=0.00215
+ C= {Cpar}
+ K1=0.00005
+ K2=0.016
+ K3= {Ind}
+ K4=0.001
+ K5=0.000005
+ L=1.7168E-07
+ Is=69.5885255
+ a=0.73032281
+ L_Z0=0
+ L_EL=0
+ L_F0=0E6
+ PkZ=216.323863
.ends XAL5030-161_sat

*======================================================================
* SPICE Model generated by Coilcraft
* Coilcraft Part Number : XAL5030-331
* Inductance = 0.33uH
*======================================================================
* Model Parameters:
*   Valid Frequency Range = 0.1MHz-300MHz
*   Ambient Temperature = 25 degC
*   Inductor Frequency Model
*   Use model for Frequency Domain simulations
*======================================================================
.subckt XAL5030-331_freq port1 port2 PARAMS: Cpar=8.7pF Ind=0.33uH
X1 port1 port2 Model1A PARAMS:
+ R1=10
+ R2=0.0032
+ C= {Cpar}
+ K1=0.000025
+ K2=0.038
+ K3= {Ind}
+ K4=0.00075
+ K5=0.000006
+ L=3.8134E-07
+ Is=42.3980331
+ a=0.72895581
+ L_Z0=0
+ L_EL=0
+ L_F0=0E6
+ PkZ=335.71278
.ends XAL5030-331_freq

*======================================================================
* SPICE Model generated by Coilcraft
* Coilcraft Part Number : XAL5030-331
* Inductance = 0.33uH
*======================================================================
* Model Parameters:
*   Valid Frequency Range = 0.1MHz-300MHz
*   Ambient Temperature = 25 degC
*   Inductor Saturation Model
*   Use model for Time Domain simulations
*======================================================================
.subckt XAL5030-331_sat port1 port2 PARAMS: Cpar=8.57pF Ind=0.33uH
X1 port1 port2 Model1C PARAMS:
+ R1=10
+ R2=0.0032
+ C= {Cpar}
+ K1=0.000025
+ K2=0.038
+ K3= {Ind}
+ K4=0.00075
+ K5=0.000006
+ L=3.8134E-07
+ Is=42.3980331
+ a=0.72895581
+ L_Z0=0
+ L_EL=0
+ L_F0=0E6
+ PkZ=335.71278
.ends XAL5030-331_sat

*======================================================================
* SPICE Model generated by Coilcraft
* Coilcraft Part Number : XAL5030-601
* Inductance = 0.6uH
*======================================================================
* Model Parameters:
*   Valid Frequency Range = 0.1MHz-200MHz
*   Ambient Temperature = 25 degC
*   Inductor Frequency Model
*   Use model for Frequency Domain simulations
*======================================================================
.subckt XAL5030-601_freq port1 port2 PARAMS: Cpar=6.9pF Ind=0.6uH
X1 port1 port2 Model1A PARAMS:
+ R1=10
+ R2=0.00411
+ C= {Cpar}
+ K1=0.00005
+ K2=0.059
+ K3= {Ind}
+ K4=0.0005
+ K5=0.000001
+ L=5.7932E-07
+ Is=37.6521504
+ a=0.74426947
+ L_Z0=0
+ L_EL=0
+ L_F0=0E6
+ PkZ=491.389182
.ends XAL5030-601_freq

*======================================================================
* SPICE Model generated by Coilcraft
* Coilcraft Part Number : XAL5030-601
* Inductance = 0.6uH
*======================================================================
* Model Parameters:
*   Valid Frequency Range = 0.1MHz-200MHz
*   Ambient Temperature = 25 degC
*   Inductor Saturation Model
*   Use model for Time Domain simulations
*======================================================================
.subckt XAL5030-601_sat port1 port2 PARAMS: Cpar=6.87pF Ind=0.6uH
X1 port1 port2 Model1C PARAMS:
+ R1=10
+ R2=0.00411
+ C= {Cpar}
+ K1=0.00005
+ K2=0.059
+ K3= {Ind}
+ K4=0.0005
+ K5=0.000001
+ L=5.7932E-07
+ Is=37.6521504
+ a=0.74426947
+ L_Z0=0
+ L_EL=0
+ L_F0=0E6
+ PkZ=491.389182
.ends XAL5030-601_sat

*======================================================================
* SPICE Model generated by Coilcraft
* Coilcraft Part Number : XAL5030-801
* Inductance = 0.8uH
*======================================================================
* Model Parameters:
*   Valid Frequency Range = 0.1MHz-200MHz
*   Ambient Temperature = 25 degC
*   Inductor Frequency Model
*   Use model for Frequency Domain simulations
*======================================================================
.subckt XAL5030-801_freq port1 port2 PARAMS: Cpar=8.5pF Ind=0.8uH
X1 port1 port2 Model1A PARAMS:
+ R1=10
+ R2=0.00514
+ C= {Cpar}
+ K1=0.0001
+ K2=0.092
+ K3= {Ind}
+ K4=0.002
+ K5=0.000004
+ L=8.3785E-07
+ Is=35.4822105
+ a=0.69871294
+ L_Z0=0
+ L_EL=0
+ L_F0=0E6
+ PkZ=665.524201
.ends XAL5030-801_freq

*======================================================================
* SPICE Model generated by Coilcraft
* Coilcraft Part Number : XAL5030-801
* Inductance = 0.8uH
*======================================================================
* Model Parameters:
*   Valid Frequency Range = 0.1MHz-200MHz
*   Ambient Temperature = 25 degC
*   Inductor Saturation Model
*   Use model for Time Domain simulations
*======================================================================
.subckt XAL5030-801_sat port1 port2 PARAMS: Cpar=8.38pF Ind=0.8uH
X1 port1 port2 Model1C PARAMS:
+ R1=10
+ R2=0.00514
+ C= {Cpar}
+ K1=0.0001
+ K2=0.092
+ K3= {Ind}
+ K4=0.002
+ K5=0.000004
+ L=8.3785E-07
+ Is=35.4822105
+ a=0.69871294
+ L_Z0=0
+ L_EL=0
+ L_F0=0E6
+ PkZ=665.524201
.ends XAL5030-801_sat

*======================================================================
* SPICE Model generated by Coilcraft
* Coilcraft Part Number : XAL5030-102
* Inductance = 1uH
*======================================================================
* Model Parameters:
*   Valid Frequency Range = 0.1MHz-200MHz
*   Ambient Temperature = 25 degC
*   Inductor Frequency Model
*   Use model for Frequency Domain simulations
*======================================================================
.subckt XAL5030-102_freq port1 port2 PARAMS: Cpar=7.6pF Ind=1uH
X1 port1 port2 Model1A PARAMS:
+ R1=10
+ R2=0.0085
+ C= {Cpar}
+ K1=0.0001
+ K2=0.11
+ K3= {Ind}
+ K4=0.005
+ K5=0.000006
+ L=1.0917E-06
+ Is=27.4142642
+ a=0.72870272
+ L_Z0=0
+ L_EL=0
+ L_F0=0E6
+ PkZ=786.266353
.ends XAL5030-102_freq

*======================================================================
* SPICE Model generated by Coilcraft
* Coilcraft Part Number : XAL5030-102
* Inductance = 1uH
*======================================================================
* Model Parameters:
*   Valid Frequency Range = 0.1MHz-200MHz
*   Ambient Temperature = 25 degC
*   Inductor Saturation Model
*   Use model for Time Domain simulations
*======================================================================
.subckt XAL5030-102_sat port1 port2 PARAMS: Cpar=7.38pF Ind=1uH
X1 port1 port2 Model1C PARAMS:
+ R1=10
+ R2=0.0085
+ C= {Cpar}
+ K1=0.0001
+ K2=0.11
+ K3= {Ind}
+ K4=0.005
+ K5=0.000006
+ L=1.0917E-06
+ Is=27.4142642
+ a=0.72870272
+ L_Z0=0
+ L_EL=0
+ L_F0=0E6
+ PkZ=786.266353
.ends XAL5030-102_sat

*======================================================================
* SPICE Model generated by Coilcraft
* Coilcraft Part Number : XAL5030-222
* Inductance = 2.2uH
*======================================================================
* Model Parameters:
*   Valid Frequency Range = 0.1MHz-100MHz
*   Ambient Temperature = 25 degC
*   Inductor Frequency Model
*   Use model for Frequency Domain simulations
*======================================================================
.subckt XAL5030-222_freq port1 port2 PARAMS: Cpar=11.2pF Ind=2.2uH
X1 port1 port2 Model1A PARAMS:
+ R1=50
+ R2=0.0132
+ C= {Cpar}
+ K1=0.00009
+ K2=0.55
+ K3= {Ind}
+ K4=0.016
+ K5=0.000009
+ L=2.6085E-06
+ Is=19.8713817
+ a=0.69051401
+ L_Z0=0
+ L_EL=0
+ L_F0=0E6
+ PkZ=1714.45692
.ends XAL5030-222_freq

*======================================================================
* SPICE Model generated by Coilcraft
* Coilcraft Part Number : XAL5030-222
* Inductance = 2.2uH
*======================================================================
* Model Parameters:
*   Valid Frequency Range = 0.1MHz-100MHz
*   Ambient Temperature = 25 degC
*   Inductor Saturation Model
*   Use model for Time Domain simulations
*======================================================================
.subckt XAL5030-222_sat port1 port2 PARAMS: Cpar=10.74pF Ind=2.2uH
X1 port1 port2 Model1C PARAMS:
+ R1=50
+ R2=0.0132
+ C= {Cpar}
+ K1=0.00009
+ K2=0.55
+ K3= {Ind}
+ K4=0.016
+ K5=0.000009
+ L=2.6085E-06
+ Is=19.8713817
+ a=0.69051401
+ L_Z0=0
+ L_EL=0
+ L_F0=0E6
+ PkZ=1714.45692
.ends XAL5030-222_sat

*======================================================================
* SPICE Model generated by Coilcraft
* Coilcraft Part Number : XAL5030-332
* Inductance = 3.3uH
*======================================================================
* Model Parameters:
*   Valid Frequency Range = 0.1MHz-100MHz
*   Ambient Temperature = 25 degC
*   Inductor Frequency Model
*   Use model for Frequency Domain simulations
*======================================================================
.subckt XAL5030-332_freq port1 port2 PARAMS: Cpar=4.6pF Ind=3.3uH
X1 port1 port2 Model1A PARAMS:
+ R1=5
+ R2=0.0212
+ C= {Cpar}
+ K1=0.00012
+ K2=0.77
+ K3= {Ind}
+ K4=0.004
+ K5=0.000007
+ L=3.451E-06
+ Is=18.2492922
+ a=0.66770532
+ L_Z0=0
+ L_EL=0
+ L_F0=0E6
+ PkZ=4740.62293
.ends XAL5030-332_freq

*======================================================================
* SPICE Model generated by Coilcraft
* Coilcraft Part Number : XAL5030-332
* Inductance = 3.3uH
*======================================================================
* Model Parameters:
*   Valid Frequency Range = 0.1MHz-100MHz
*   Ambient Temperature = 25 degC
*   Inductor Saturation Model
*   Use model for Time Domain simulations
*======================================================================
.subckt XAL5030-332_sat port1 port2 PARAMS: Cpar=4.57pF Ind=3.3uH
X1 port1 port2 Model1C PARAMS:
+ R1=5
+ R2=0.0212
+ C= {Cpar}
+ K1=0.00012
+ K2=0.77
+ K3= {Ind}
+ K4=0.004
+ K5=0.000007
+ L=3.451E-06
+ Is=18.2492922
+ a=0.66770532
+ L_Z0=0
+ L_EL=0
+ L_F0=0E6
+ PkZ=4740.62293
.ends XAL5030-332_sat

*======================================================================
* SPICE Model generated by Coilcraft
* Coilcraft Part Number : XAL5030-472
* Inductance = 4.7uH
*======================================================================
* Model Parameters:
*   Valid Frequency Range = 0.1MHz-200MHz
*   Ambient Temperature = 25 degC
*   Inductor Frequency Model
*   Use model for Frequency Domain simulations
*======================================================================
.subckt XAL5030-472_freq port1 port2 PARAMS: Cpar=2.7pF Ind=4.7uH
X1 port1 port2 Model1A PARAMS:
+ R1=5
+ R2=0.0327
+ C= {Cpar}
+ K1=0.000075
+ K2=1.14
+ K3= {Ind}
+ K4=0.009
+ K5=0.000009
+ L=5.368E-06
+ Is=15.4360932
+ a=0.68975795
+ L_Z0=0
+ L_EL=0
+ L_F0=0E6
+ PkZ=7459.67339
.ends XAL5030-472_freq

*======================================================================
* SPICE Model generated by Coilcraft
* Coilcraft Part Number : XAL5030-472
* Inductance = 4.7uH
*======================================================================
* Model Parameters:
*   Valid Frequency Range = 0.1MHz-200MHz
*   Ambient Temperature = 25 degC
*   Inductor Saturation Model
*   Use model for Time Domain simulations
*======================================================================
.subckt XAL5030-472_sat port1 port2 PARAMS: Cpar=2.67pF Ind=4.7uH
X1 port1 port2 Model1C PARAMS:
+ R1=5
+ R2=0.0327
+ C= {Cpar}
+ K1=0.000075
+ K2=1.14
+ K3= {Ind}
+ K4=0.009
+ K5=0.000009
+ L=5.368E-06
+ Is=15.4360932
+ a=0.68975795
+ L_Z0=0
+ L_EL=0
+ L_F0=0E6
+ PkZ=7459.67339
.ends XAL5030-472_sat

*======================================================================
* SPICE Model generated by Coilcraft
* Coilcraft Saturation Inductor Model
*======================================================================
* Model Parameters:
*   Valid Frequency Range Varies by Inductor
*   Ambient Temperature = 25 degC
*   Current Saturable Inductor Model
*======================================================================
.subckt Model1C Lin Lout PARAMS:
+ R1=1
+ R2=1
+ C=1
+ L=1
+ Is=1
+ a=1
+ PkZ=94.2 * {L} *1e6
R2 N001 Lin {R2}
R3 Lout N001 {PkZ}
C1 N002 N001 {C}
R1 Lout N002 {R1}
E1 N003 N001 N004 0 1
G1 0 N004 VALUE={{L*Is}*tanh((I(E1)/{Is})**{a})**{1/a}}
L1 N004 0 1
E2 N003 Lout N005 0 1
G2 0 N005 VALUE={{L*Is}*tanh((I(E2)/{Is})**{a})**{1/a}}
L2 N005 0 1
.ends Model1C
*======================================================================
* SPICE Model generated by Coilcraft
* Coilcraft Power Inductor Model
*======================================================================
* Model Parameters:
*   Valid Frequency Range Varies by Inductor
*   Ambient Temperature = 25 degC
*   DC Bias Current = 0 A
*   Frequency Dependent Inductor Model
*======================================================================
.subckt Model1A Lin Lout PARAMS:
+ R1=1
+ R2=1
+ C=1
+ K1=1
+ K2=1
+ K3=1
+ K4=1
+ K5=1
R2 N001 Lin {R2}
R1 Lout N002 {R1}
C1 N002 N001 {C}
G_Rvar2 N001 Lout LAPLACE { V(N001, Lout) } {1/K2/(-S*S/4/PI^2)^0.25}
G_Rvar1 N001 N003 LAPLACE { V(N001, N003) } {1/K1/(-S*S/4/PI^2)^0.25}
G_Lvar N003 Lout  LAPLACE { V(N003, Lout) } {1/(S*1e-6*({K3*1e6}-({K4}*LOG({K5}*(sqrt(-S*S)/(2*pi))))))}
*This large resistance to ground has been added to prevent a floating node error
R3 N003 0 100Meg
.ends Model1A


.subckt Coilcraft_Inductor Lin Lout
R1 Lout Lin 100Meg
.ends Coilcraft_Inductor
