*======================================================================
* SPICE Model generated by Coilcraft
* Coilcraft Part Number : XAL7030-161
* Inductance = 0.16uH
*======================================================================
* Model Parameters:
*   Valid Frequency Range = 0.1MHz-200MHz
*   Ambient Temperature = 25 degC
*   Inductor Frequency Model
*   Use model for Frequency Domain simulations
*======================================================================
.subckt XAL7030-161_freq port1 port2 PARAMS: Cpar=7.02pF Ind=0.16uH
X1 port1 port2 Model1A PARAMS:
+ R1=20
+ R2=0.00115
+ C= {Cpar}
+ K1=0.00004
+ K2=0.022
+ K3= {Ind}
+ K4=0.0005
+ K5=0.000006
+ L=1.7769E-07
+ Is=125.119594
+ a=0.66175582
+ L_Z0=0
+ L_EL=0
+ L_F0=0E6
+ PkZ=217.689803
.ends XAL7030-161_freq

*======================================================================
* SPICE Model generated by Coilcraft
* Coilcraft Part Number : XAL7030-161
* Inductance = 0.16uH
*======================================================================
* Model Parameters:
*   Valid Frequency Range = 0.1MHz-200MHz
*   Ambient Temperature = 25 degC
*   Inductor Saturation Model
*   Use model for Time Domain simulations
*======================================================================
.subckt XAL7030-161_sat port1 port2 PARAMS: Cpar=6.87pF Ind=0.16uH
X1 port1 port2 Model1C PARAMS:
+ R1=20
+ R2=0.00115
+ C= {Cpar}
+ K1=0.00004
+ K2=0.022
+ K3= {Ind}
+ K4=0.0005
+ K5=0.000006
+ L=1.7769E-07
+ Is=125.119594
+ a=0.66175582
+ L_Z0=0
+ L_EL=0
+ L_F0=0E6
+ PkZ=217.689803
.ends XAL7030-161_sat

*======================================================================
* SPICE Model generated by Coilcraft
* Coilcraft Part Number : XAL7030-301
* Inductance = 0.28uH
*======================================================================
* Model Parameters:
*   Valid Frequency Range = 0.1MHz-150MHz
*   Ambient Temperature = 25 degC
*   Inductor Frequency Model
*   Use model for Frequency Domain simulations
*======================================================================
.subckt XAL7030-301_freq port1 port2 PARAMS: Cpar=9.28pF Ind=0.28uH
X1 port1 port2 Model1A PARAMS:
+ R1=18
+ R2=0.00175
+ C= {Cpar}
+ K1=0.00004
+ K2=0.048
+ K3= {Ind}
+ K4=0.0005
+ K5=0.000006
+ L=2.8041E-07
+ Is=142.359956
+ a=0.53965082
+ L_Z0=0
+ L_EL=0
+ L_F0=0E6
+ PkZ=370.140136
.ends XAL7030-301_freq

*======================================================================
* SPICE Model generated by Coilcraft
* Coilcraft Part Number : XAL7030-301
* Inductance = 0.28uH
*======================================================================
* Model Parameters:
*   Valid Frequency Range = 0.1MHz-150MHz
*   Ambient Temperature = 25 degC
*   Inductor Saturation Model
*   Use model for Time Domain simulations
*======================================================================
.subckt XAL7030-301_sat port1 port2 PARAMS: Cpar=9.17pF Ind=0.28uH
X1 port1 port2 Model1C PARAMS:
+ R1=18
+ R2=0.00175
+ C= {Cpar}
+ K1=0.00004
+ K2=0.048
+ K3= {Ind}
+ K4=0.0005
+ K5=0.000006
+ L=2.8041E-07
+ Is=142.359956
+ a=0.53965082
+ L_Z0=0
+ L_EL=0
+ L_F0=0E6
+ PkZ=370.140136
.ends XAL7030-301_sat

*======================================================================
* SPICE Model generated by Coilcraft
* Coilcraft Part Number : XAL7030-601
* Inductance = 0.6uH
*======================================================================
* Model Parameters:
*   Valid Frequency Range = 0.1MHz-100MHz
*   Ambient Temperature = 25 degC
*   Inductor Frequency Model
*   Use model for Frequency Domain simulations
*======================================================================
.subckt XAL7030-601_freq port1 port2 PARAMS: Cpar=11.6pF Ind=0.6uH
X1 port1 port2 Model1A PARAMS:
+ R1=16
+ R2=0.003
+ C= {Cpar}
+ K1=0.00004
+ K2=0.093
+ K3= {Ind}
+ K4=0.0018
+ K5=0.000006
+ L=6.3868E-07
+ Is=69.1715319
+ a=0.59369986
+ L_Z0=0
+ L_EL=0
+ L_F0=0E6
+ PkZ=588.985127
.ends XAL7030-601_freq

*======================================================================
* SPICE Model generated by Coilcraft
* Coilcraft Part Number : XAL7030-601
* Inductance = 0.6uH
*======================================================================
* Model Parameters:
*   Valid Frequency Range = 0.1MHz-100MHz
*   Ambient Temperature = 25 degC
*   Inductor Saturation Model
*   Use model for Time Domain simulations
*======================================================================
.subckt XAL7030-601_sat port1 port2 PARAMS: Cpar=11.39pF Ind=0.6uH
X1 port1 port2 Model1C PARAMS:
+ R1=16
+ R2=0.003
+ C= {Cpar}
+ K1=0.00004
+ K2=0.093
+ K3= {Ind}
+ K4=0.0018
+ K5=0.000006
+ L=6.3868E-07
+ Is=69.1715319
+ a=0.59369986
+ L_Z0=0
+ L_EL=0
+ L_F0=0E6
+ PkZ=588.985127
.ends XAL7030-601_sat

*======================================================================
* SPICE Model generated by Coilcraft
* Coilcraft Part Number : XAL7030-102
* Inductance = 1uH
*======================================================================
* Model Parameters:
*   Valid Frequency Range = 0.1MHz-80MHz
*   Ambient Temperature = 25 degC
*   Inductor Frequency Model
*   Use model for Frequency Domain simulations
*======================================================================
.subckt XAL7030-102_freq port1 port2 PARAMS: Cpar=13.2pF Ind=1uH
X1 port1 port2 Model1A PARAMS:
+ R1=14
+ R2=0.00455
+ C= {Cpar}
+ K1=0.00004
+ K2=0.16
+ K3= {Ind}
+ K4=0.005
+ K5=0.000008
+ L=9.2259E-07
+ Is=63.3460212
+ a=0.59988334
+ L_Z0=0
+ L_EL=0
+ L_F0=0E6
+ PkZ=884.289069
.ends XAL7030-102_freq

*======================================================================
* SPICE Model generated by Coilcraft
* Coilcraft Part Number : XAL7030-102
* Inductance = 1uH
*======================================================================
* Model Parameters:
*   Valid Frequency Range = 0.1MHz-80MHz
*   Ambient Temperature = 25 degC
*   Inductor Saturation Model
*   Use model for Time Domain simulations
*======================================================================
.subckt XAL7030-102_sat port1 port2 PARAMS: Cpar=12.81pF Ind=1uH
X1 port1 port2 Model1C PARAMS:
+ R1=14
+ R2=0.00455
+ C= {Cpar}
+ K1=0.00004
+ K2=0.16
+ K3= {Ind}
+ K4=0.005
+ K5=0.000008
+ L=9.2259E-07
+ Is=63.3460212
+ a=0.59988334
+ L_Z0=0
+ L_EL=0
+ L_F0=0E6
+ PkZ=884.289069
.ends XAL7030-102_sat

*======================================================================
* SPICE Model generated by Coilcraft
* Coilcraft Part Number : XAL7030-152
* Inductance = 1.5uH
*======================================================================
* Model Parameters:
*   Valid Frequency Range = 0.1MHz-70MHz
*   Ambient Temperature = 25 degC
*   Inductor Frequency Model
*   Use model for Frequency Domain simulations
*======================================================================
.subckt XAL7030-152_freq port1 port2 PARAMS: Cpar=13.2pF Ind=1.5uH
X1 port1 port2 Model1A PARAMS:
+ R1=13
+ R2=0.0076
+ C= {Cpar}
+ K1=0.00007
+ K2=0.3
+ K3= {Ind}
+ K4=0.01
+ K5=0.000009
+ L=1.403E-06
+ Is=46.3377097
+ a=0.62245553
+ L_Z0=0
+ L_EL=0
+ L_F0=0E6
+ PkZ=1482.36372
.ends XAL7030-152_freq

*======================================================================
* SPICE Model generated by Coilcraft
* Coilcraft Part Number : XAL7030-152
* Inductance = 1.5uH
*======================================================================
* Model Parameters:
*   Valid Frequency Range = 0.1MHz-70MHz
*   Ambient Temperature = 25 degC
*   Inductor Saturation Model
*   Use model for Time Domain simulations
*======================================================================
.subckt XAL7030-152_sat port1 port2 PARAMS: Cpar=12.69pF Ind=1.5uH
X1 port1 port2 Model1C PARAMS:
+ R1=13
+ R2=0.0076
+ C= {Cpar}
+ K1=0.00007
+ K2=0.3
+ K3= {Ind}
+ K4=0.01
+ K5=0.000009
+ L=1.403E-06
+ Is=46.3377097
+ a=0.62245553
+ L_Z0=0
+ L_EL=0
+ L_F0=0E6
+ PkZ=1482.36372
.ends XAL7030-152_sat

*======================================================================
* SPICE Model generated by Coilcraft
* Coilcraft Part Number : XAL7030-222
* Inductance = 2.2uH
*======================================================================
* Model Parameters:
*   Valid Frequency Range = 0.1MHz-70MHz
*   Ambient Temperature = 25 degC
*   Inductor Frequency Model
*   Use model for Frequency Domain simulations
*======================================================================
.subckt XAL7030-222_freq port1 port2 PARAMS: Cpar=14.9pF Ind=2.2uH
X1 port1 port2 Model1A PARAMS:
+ R1=14
+ R2=0.0137
+ C= {Cpar}
+ K1=0.00007
+ K2=0.4
+ K3= {Ind}
+ K4=0.011
+ K5=0.000009
+ L=2.4256E-06
+ Is=34.4127119
+ a=0.65825095
+ L_Z0=0
+ L_EL=0
+ L_F0=0E6
+ PkZ=1751.81934
.ends XAL7030-222_freq

*======================================================================
* SPICE Model generated by Coilcraft
* Coilcraft Part Number : XAL7030-222
* Inductance = 2.2uH
*======================================================================
* Model Parameters:
*   Valid Frequency Range = 0.1MHz-70MHz
*   Ambient Temperature = 25 degC
*   Inductor Saturation Model
*   Use model for Time Domain simulations
*======================================================================
.subckt XAL7030-222_sat port1 port2 PARAMS: Cpar=14.49pF Ind=2.2uH
X1 port1 port2 Model1C PARAMS:
+ R1=14
+ R2=0.0137
+ C= {Cpar}
+ K1=0.00007
+ K2=0.4
+ K3= {Ind}
+ K4=0.011
+ K5=0.000009
+ L=2.4256E-06
+ Is=34.4127119
+ a=0.65825095
+ L_Z0=0
+ L_EL=0
+ L_F0=0E6
+ PkZ=1751.81934
.ends XAL7030-222_sat

*======================================================================
* SPICE Model generated by Coilcraft
* Coilcraft Part Number : XAL7030-332
* Inductance = 3.3uH
*======================================================================
* Model Parameters:
*   Valid Frequency Range = 0.1MHz-50MHz
*   Ambient Temperature = 25 degC
*   Inductor Frequency Model
*   Use model for Frequency Domain simulations
*======================================================================
.subckt XAL7030-332_freq port1 port2 PARAMS: Cpar=17.1pF Ind=3.3uH
X1 port1 port2 Model1A PARAMS:
+ R1=14
+ R2=0.0195
+ C= {Cpar}
+ K1=0.00007
+ K2=0.75
+ K3= {Ind}
+ K4=0.02
+ K5=0.0000095
+ L=3.6408E-06
+ Is=30.3004033
+ a=0.611905
+ L_Z0=0
+ L_EL=0
+ L_F0=0E6
+ PkZ=2747.71824
.ends XAL7030-332_freq

*======================================================================
* SPICE Model generated by Coilcraft
* Coilcraft Part Number : XAL7030-332
* Inductance = 3.3uH
*======================================================================
* Model Parameters:
*   Valid Frequency Range = 0.1MHz-50MHz
*   Ambient Temperature = 25 degC
*   Inductor Saturation Model
*   Use model for Time Domain simulations
*======================================================================
.subckt XAL7030-332_sat port1 port2 PARAMS: Cpar=16.55pF Ind=3.3uH
X1 port1 port2 Model1C PARAMS:
+ R1=14
+ R2=0.0195
+ C= {Cpar}
+ K1=0.00007
+ K2=0.75
+ K3= {Ind}
+ K4=0.02
+ K5=0.0000095
+ L=3.6408E-06
+ Is=30.3004033
+ a=0.611905
+ L_Z0=0
+ L_EL=0
+ L_F0=0E6
+ PkZ=2747.71824
.ends XAL7030-332_sat

*======================================================================
* SPICE Model generated by Coilcraft
* Coilcraft Part Number : XAL7030-472
* Inductance = 4.7uH
*======================================================================
* Model Parameters:
*   Valid Frequency Range = 0.1MHz-40MHz
*   Ambient Temperature = 25 degC
*   Inductor Frequency Model
*   Use model for Frequency Domain simulations
*======================================================================
.subckt XAL7030-472_freq port1 port2 PARAMS: Cpar=13.4pF Ind=4.7uH
X1 port1 port2 Model1A PARAMS:
+ R1=16
+ R2=0.0252
+ C= {Cpar}
+ K1=0.00006
+ K2=0.92
+ K3= {Ind}
+ K4=0.024
+ K5=0.0000095
+ L=4.8081E-06
+ Is=25.3325485
+ a=0.62685312
+ L_Z0=0
+ L_EL=0
+ L_F0=0E6
+ PkZ=3463.71229
.ends XAL7030-472_freq

*======================================================================
* SPICE Model generated by Coilcraft
* Coilcraft Part Number : XAL7030-472
* Inductance = 4.7uH
*======================================================================
* Model Parameters:
*   Valid Frequency Range = 0.1MHz-40MHz
*   Ambient Temperature = 25 degC
*   Inductor Saturation Model
*   Use model for Time Domain simulations
*======================================================================
.subckt XAL7030-472_sat port1 port2 PARAMS: Cpar=13.04pF Ind=4.7uH
X1 port1 port2 Model1C PARAMS:
+ R1=16
+ R2=0.0252
+ C= {Cpar}
+ K1=0.00006
+ K2=0.92
+ K3= {Ind}
+ K4=0.024
+ K5=0.0000095
+ L=4.8081E-06
+ Is=25.3325485
+ a=0.62685312
+ L_Z0=0
+ L_EL=0
+ L_F0=0E6
+ PkZ=3463.71229
.ends XAL7030-472_sat

*======================================================================
* SPICE Model generated by Coilcraft
* Coilcraft Part Number : XAL7030-562
* Inductance = 5.6uH
*======================================================================
* Model Parameters:
*   Valid Frequency Range = 0.1MHz-40MHz
*   Ambient Temperature = 25 degC
*   Inductor Frequency Model
*   Use model for Frequency Domain simulations
*======================================================================
.subckt XAL7030-562_freq port1 port2 PARAMS: Cpar=14pF Ind=5.6uH
X1 port1 port2 Model1A PARAMS:
+ R1=19
+ R2=0.03025
+ C= {Cpar}
+ K1=0.00006
+ K2=1.04
+ K3= {Ind}
+ K4=0.026
+ K5=0.0000095
+ L=5.3348E-06
+ Is=25.7075172
+ a=0.61436861
+ L_Z0=0
+ L_EL=0
+ L_F0=0E6
+ PkZ=3640.27153
.ends XAL7030-562_freq

*======================================================================
* SPICE Model generated by Coilcraft
* Coilcraft Part Number : XAL7030-562
* Inductance = 5.6uH
*======================================================================
* Model Parameters:
*   Valid Frequency Range = 0.1MHz-40MHz
*   Ambient Temperature = 25 degC
*   Inductor Saturation Model
*   Use model for Time Domain simulations
*======================================================================
.subckt XAL7030-562_sat port1 port2 PARAMS: Cpar=13.67pF Ind=5.6uH
X1 port1 port2 Model1C PARAMS:
+ R1=19
+ R2=0.03025
+ C= {Cpar}
+ K1=0.00006
+ K2=1.04
+ K3= {Ind}
+ K4=0.026
+ K5=0.0000095
+ L=5.3348E-06
+ Is=25.7075172
+ a=0.61436861
+ L_Z0=0
+ L_EL=0
+ L_F0=0E6
+ PkZ=3640.27153
.ends XAL7030-562_sat

*======================================================================
* SPICE Model generated by Coilcraft
* Coilcraft Part Number : XAL7030-682
* Inductance = 6.8uH
*======================================================================
* Model Parameters:
*   Valid Frequency Range = 0.1MHz-30MHz
*   Ambient Temperature = 25 degC
*   Inductor Frequency Model
*   Use model for Frequency Domain simulations
*======================================================================
.subckt XAL7030-682_freq port1 port2 PARAMS: Cpar=16.5pF Ind=6.8uH
X1 port1 port2 Model1A PARAMS:
+ R1=19
+ R2=0.0387
+ C= {Cpar}
+ K1=0.00006
+ K2=1.25
+ K3= {Ind}
+ K4=0.028
+ K5=0.0000095
+ L=6.5239E-06
+ Is=21.3842452
+ a=0.63731822
+ L_Z0=0
+ L_EL=0
+ L_F0=0E6
+ PkZ=3953.72398
.ends XAL7030-682_freq

*======================================================================
* SPICE Model generated by Coilcraft
* Coilcraft Part Number : XAL7030-682
* Inductance = 6.8uH
*======================================================================
* Model Parameters:
*   Valid Frequency Range = 0.1MHz-30MHz
*   Ambient Temperature = 25 degC
*   Inductor Saturation Model
*   Use model for Time Domain simulations
*======================================================================
.subckt XAL7030-682_sat port1 port2 PARAMS: Cpar=16.16pF Ind=6.8uH
X1 port1 port2 Model1C PARAMS:
+ R1=19
+ R2=0.0387
+ C= {Cpar}
+ K1=0.00006
+ K2=1.25
+ K3= {Ind}
+ K4=0.028
+ K5=0.0000095
+ L=6.5239E-06
+ Is=21.3842452
+ a=0.63731822
+ L_Z0=0
+ L_EL=0
+ L_F0=0E6
+ PkZ=3953.72398
.ends XAL7030-682_sat

*======================================================================
* SPICE Model generated by Coilcraft
* Coilcraft Part Number : XAL7030-822
* Inductance = 8.2uH
*======================================================================
* Model Parameters:
*   Valid Frequency Range = 0.1MHz-30MHz
*   Ambient Temperature = 25 degC
*   Inductor Frequency Model
*   Use model for Frequency Domain simulations
*======================================================================
.subckt XAL7030-822_freq port1 port2 PARAMS: Cpar=19pF Ind=8.2uH
X1 port1 port2 Model1A PARAMS:
+ R1=20
+ R2=0.0443
+ C= {Cpar}
+ K1=0.00008
+ K2=1.4
+ K3= {Ind}
+ K4=0.036
+ K5=0.0000095
+ L=8.0059E-06
+ Is=20.1230291
+ a=0.64480553
+ L_Z0=0
+ L_EL=0
+ L_F0=0E6
+ PkZ=4049.43786
.ends XAL7030-822_freq

*======================================================================
* SPICE Model generated by Coilcraft
* Coilcraft Part Number : XAL7030-822
* Inductance = 8.2uH
*======================================================================
* Model Parameters:
*   Valid Frequency Range = 0.1MHz-30MHz
*   Ambient Temperature = 25 degC
*   Inductor Saturation Model
*   Use model for Time Domain simulations
*======================================================================
.subckt XAL7030-822_sat port1 port2 PARAMS: Cpar=18.60pF Ind=8.2uH
X1 port1 port2 Model1C PARAMS:
+ R1=20
+ R2=0.0443
+ C= {Cpar}
+ K1=0.00008
+ K2=1.4
+ K3= {Ind}
+ K4=0.036
+ K5=0.0000095
+ L=8.0059E-06
+ Is=20.1230291
+ a=0.64480553
+ L_Z0=0
+ L_EL=0
+ L_F0=0E6
+ PkZ=4049.43786
.ends XAL7030-822_sat

*======================================================================
* SPICE Model generated by Coilcraft
* Coilcraft Saturation Inductor Model
*======================================================================
* Model Parameters:
*   Valid Frequency Range Varies by Inductor
*   Ambient Temperature = 25 degC
*   Current Saturable Inductor Model
*======================================================================
.subckt Model1C Lin Lout PARAMS:
+ R1=1
+ R2=1
+ C=1
+ L=1
+ Is=1
+ a=1
+ PkZ=94.2 * {L} *1e6
R2 N001 Lin {R2}
R3 Lout N001 {PkZ}
C1 N002 N001 {C}
R1 Lout N002 {R1}
E1 N003 N001 N004 0 1
G1 0 N004 VALUE={{L*Is}*tanh((I(E1)/{Is})**{a})**{1/a}}
L1 N004 0 1
E2 N003 Lout N005 0 1
G2 0 N005 VALUE={{L*Is}*tanh((I(E2)/{Is})**{a})**{1/a}}
L2 N005 0 1
.ends Model1C
*======================================================================
* SPICE Model generated by Coilcraft
* Coilcraft Power Inductor Model
*======================================================================
* Model Parameters:
*   Valid Frequency Range Varies by Inductor
*   Ambient Temperature = 25 degC
*   DC Bias Current = 0 A
*   Frequency Dependent Inductor Model
*======================================================================
.subckt Model1A Lin Lout PARAMS:
+ R1=1
+ R2=1
+ C=1
+ K1=1
+ K2=1
+ K3=1
+ K4=1
+ K5=1
R2 N001 Lin {R2}
R1 Lout N002 {R1}
C1 N002 N001 {C}
G_Rvar2 N001 Lout LAPLACE { V(N001, Lout) } {1/K2/(-S*S/4/PI^2)^0.25}
G_Rvar1 N001 N003 LAPLACE { V(N001, N003) } {1/K1/(-S*S/4/PI^2)^0.25}
G_Lvar N003 Lout  LAPLACE { V(N003, Lout) } {1/(S*1e-6*({K3*1e6}-({K4}*LOG({K5}*(sqrt(-S*S)/(2*pi))))))}
*This large resistance to ground has been added to prevent a floating node error
R3 N003 0 100Meg
.ends Model1A


.subckt Coilcraft_Inductor Lin Lout
R1 Lout Lin 100Meg
.ends Coilcraft_Inductor
