*======================================================================
* SPICE Model generated by Coilcraft
* Coilcraft Part Number : XAL7070-161
* Inductance = 0.16uH
*======================================================================
* Model Parameters:
*   Valid Frequency Range = 0.1MHz-220MHz
*   Ambient Temperature = 25 degC
*   Inductor Frequency Model
*   Use model for Frequency Domain simulations
*======================================================================
.subckt XAL7070-161_freq port1 port2 PARAMS: Cpar=5.31pF Ind=0.16uH
X1 port1 port2 Model1A PARAMS:
+ R1=19.1
+ R2=0.00075
+ C= {Cpar}
+ K1=0.000001
+ K2=0.0188
+ K3= {Ind}
+ K4=0.0199
+ K5=0.000001
+ L=1.6366E-07
+ Is=178.631776
+ a=0.69070964
+ L_Z0=0
+ L_EL=0
+ L_F0=0E6
+ PkZ=185.275518
.ends XAL7070-161_freq

*======================================================================
* SPICE Model generated by Coilcraft
* Coilcraft Part Number : XAL7070-161
* Inductance = 0.16uH
*======================================================================
* Model Parameters:
*   Valid Frequency Range = 0.1MHz-220MHz
*   Ambient Temperature = 25 degC
*   Inductor Saturation Model
*   Use model for Time Domain simulations
*======================================================================
.subckt XAL7070-161_sat port1 port2 PARAMS: Cpar=1.91pF Ind=0.16uH
X1 port1 port2 Model1C PARAMS:
+ R1=19.1
+ R2=0.00075
+ C= {Cpar}
+ K1=0.000001
+ K2=0.0188
+ K3= {Ind}
+ K4=0.0199
+ K5=0.000001
+ L=1.6366E-07
+ Is=178.631776
+ a=0.69070964
+ L_Z0=0
+ L_EL=0
+ L_F0=0E6
+ PkZ=185.275518
.ends XAL7070-161_sat

*======================================================================
* SPICE Model generated by Coilcraft
* Coilcraft Part Number : XAL7070-301
* Inductance = 0.3uH
*======================================================================
* Model Parameters:
*   Valid Frequency Range = 0.1MHz-160MHz
*   Ambient Temperature = 25 degC
*   Inductor Frequency Model
*   Use model for Frequency Domain simulations
*======================================================================
.subckt XAL7070-301_freq port1 port2 PARAMS: Cpar=6.27pF Ind=0.3uH
X1 port1 port2 Model1A PARAMS:
+ R1=20.2
+ R2=0.00106
+ C= {Cpar}
+ K1=0.000001
+ K2=0.0367
+ K3= {Ind}
+ K4=0.000331
+ K5=0.000001
+ L=3.4568E-07
+ Is=114.858725
+ a=0.74657176
+ L_Z0=0
+ L_EL=0
+ L_F0=0E6
+ PkZ=339.285412
.ends XAL7070-301_freq

*======================================================================
* SPICE Model generated by Coilcraft
* Coilcraft Part Number : XAL7070-301
* Inductance = 0.3uH
*======================================================================
* Model Parameters:
*   Valid Frequency Range = 0.1MHz-160MHz
*   Ambient Temperature = 25 degC
*   Inductor Saturation Model
*   Use model for Time Domain simulations
*======================================================================
.subckt XAL7070-301_sat port1 port2 PARAMS: Cpar=6.24pF Ind=0.3uH
X1 port1 port2 Model1C PARAMS:
+ R1=20.2
+ R2=0.00106
+ C= {Cpar}
+ K1=0.000001
+ K2=0.0367
+ K3= {Ind}
+ K4=0.000331
+ K5=0.000001
+ L=3.4568E-07
+ Is=114.858725
+ a=0.74657176
+ L_Z0=0
+ L_EL=0
+ L_F0=0E6
+ PkZ=339.285412
.ends XAL7070-301_sat

*======================================================================
* SPICE Model generated by Coilcraft
* Coilcraft Part Number : XAL7070-551
* Inductance = 0.55uH
*======================================================================
* Model Parameters:
*   Valid Frequency Range = 0.1MHz-110MHz
*   Ambient Temperature = 25 degC
*   Inductor Frequency Model
*   Use model for Frequency Domain simulations
*======================================================================
.subckt XAL7070-551_freq port1 port2 PARAMS: Cpar=7.62pF Ind=0.55uH
X1 port1 port2 Model1A PARAMS:
+ R1=14.5
+ R2=0.00142
+ C= {Cpar}
+ K1=0.000001
+ K2=0.0562
+ K3= {Ind}
+ K4=0.00289
+ K5=0.9
+ L=5.3549E-07
+ Is=101.147403
+ a=0.64226209
+ L_Z0=0
+ L_EL=0
+ L_F0=0E6
+ PkZ=456.666046
.ends XAL7070-551_freq

*======================================================================
* SPICE Model generated by Coilcraft
* Coilcraft Part Number : XAL7070-551
* Inductance = 0.55uH
*======================================================================
* Model Parameters:
*   Valid Frequency Range = 0.1MHz-110MHz
*   Ambient Temperature = 25 degC
*   Inductor Saturation Model
*   Use model for Time Domain simulations
*======================================================================
.subckt XAL7070-551_sat port1 port2 PARAMS: Cpar=6.90pF Ind=0.55uH
X1 port1 port2 Model1C PARAMS:
+ R1=14.5
+ R2=0.00142
+ C= {Cpar}
+ K1=0.000001
+ K2=0.0562
+ K3= {Ind}
+ K4=0.00289
+ K5=0.9
+ L=5.3549E-07
+ Is=101.147403
+ a=0.64226209
+ L_Z0=0
+ L_EL=0
+ L_F0=0E6
+ PkZ=456.666046
.ends XAL7070-551_sat

*======================================================================
* SPICE Model generated by Coilcraft
* Coilcraft Part Number : XAL7070-651
* Inductance = 0.65uH
*======================================================================
* Model Parameters:
*   Valid Frequency Range = 0.1MHz-140MHz
*   Ambient Temperature = 25 degC
*   Inductor Frequency Model
*   Use model for Frequency Domain simulations
*======================================================================
.subckt XAL7070-651_freq port1 port2 PARAMS: Cpar=9.02pF Ind=0.65uH
X1 port1 port2 Model1A PARAMS:
+ R1=11.5
+ R2=0.00175
+ C= {Cpar}
+ K1=0.0000315
+ K2=0.081
+ K3= {Ind}
+ K4=0.0103
+ K5=0.000001
+ L=6.5996E-07
+ Is=91.5439893
+ a=0.73247878
+ L_Z0=0
+ L_EL=0
+ L_F0=0E6
+ PkZ=598.320694
.ends XAL7070-651_freq

*======================================================================
* SPICE Model generated by Coilcraft
* Coilcraft Part Number : XAL7070-651
* Inductance = 0.65uH
*======================================================================
* Model Parameters:
*   Valid Frequency Range = 0.1MHz-140MHz
*   Ambient Temperature = 25 degC
*   Inductor Saturation Model
*   Use model for Time Domain simulations
*======================================================================
.subckt XAL7070-651_sat port1 port2 PARAMS: Cpar=8.42pF Ind=0.65uH
X1 port1 port2 Model1C PARAMS:
+ R1=11.5
+ R2=0.00175
+ C= {Cpar}
+ K1=0.0000315
+ K2=0.081
+ K3= {Ind}
+ K4=0.0103
+ K5=0.000001
+ L=6.5996E-07
+ Is=91.5439893
+ a=0.73247878
+ L_Z0=0
+ L_EL=0
+ L_F0=0E6
+ PkZ=598.320694
.ends XAL7070-651_sat

*======================================================================
* SPICE Model generated by Coilcraft
* Coilcraft Part Number : XAL7070-801
* Inductance = 0.8uH
*======================================================================
* Model Parameters:
*   Valid Frequency Range = 0.1MHz-120MHz
*   Ambient Temperature = 25 degC
*   Inductor Frequency Model
*   Use model for Frequency Domain simulations
*======================================================================
.subckt XAL7070-801_freq port1 port2 PARAMS: Cpar=7.62pF Ind=0.8uH
X1 port1 port2 Model1A PARAMS:
+ R1=9
+ R2=0.00208
+ C= {Cpar}
+ K1=0.0000145
+ K2=0.087
+ K3= {Ind}
+ K4=0.0206
+ K5=0.0000325
+ L=8.4457E-07
+ Is=88.8931061
+ a=0.69177374
+ L_Z0=0
+ L_EL=0
+ L_F0=0E6
+ PkZ=683.318526
.ends XAL7070-801_freq

*======================================================================
* SPICE Model generated by Coilcraft
* Coilcraft Part Number : XAL7070-801
* Inductance = 0.8uH
*======================================================================
* Model Parameters:
*   Valid Frequency Range = 0.1MHz-120MHz
*   Ambient Temperature = 25 degC
*   Inductor Saturation Model
*   Use model for Time Domain simulations
*======================================================================
.subckt XAL7070-801_sat port1 port2 PARAMS: Cpar=6.12pF Ind=0.8uH
X1 port1 port2 Model1C PARAMS:
+ R1=9
+ R2=0.00208
+ C= {Cpar}
+ K1=0.0000145
+ K2=0.087
+ K3= {Ind}
+ K4=0.0206
+ K5=0.0000325
+ L=8.4457E-07
+ Is=88.8931061
+ a=0.69177374
+ L_Z0=0
+ L_EL=0
+ L_F0=0E6
+ PkZ=683.318526
.ends XAL7070-801_sat

*======================================================================
* SPICE Model generated by Coilcraft
* Coilcraft Part Number : XAL7070-102
* Inductance = 1uH
*======================================================================
* Model Parameters:
*   Valid Frequency Range = 0.1MHz-100MHz
*   Ambient Temperature = 25 degC
*   Inductor Frequency Model
*   Use model for Frequency Domain simulations
*======================================================================
.subckt XAL7070-102_freq port1 port2 PARAMS: Cpar=8.52pF Ind=1uH
X1 port1 port2 Model1A PARAMS:
+ R1=11.9
+ R2=0.00255
+ C= {Cpar}
+ K1=0.000001
+ K2=0.115
+ K3= {Ind}
+ K4=0.0127
+ K5=0.00005
+ L=1.032E-06
+ Is=68.7128693
+ a=0.73055513
+ L_Z0=0
+ L_EL=0
+ L_F0=0E6
+ PkZ=793.969383
.ends XAL7070-102_freq

*======================================================================
* SPICE Model generated by Coilcraft
* Coilcraft Part Number : XAL7070-102
* Inductance = 1uH
*======================================================================
* Model Parameters:
*   Valid Frequency Range = 0.1MHz-100MHz
*   Ambient Temperature = 25 degC
*   Inductor Saturation Model
*   Use model for Time Domain simulations
*======================================================================
.subckt XAL7070-102_sat port1 port2 PARAMS: Cpar=7.66pF Ind=1uH
X1 port1 port2 Model1C PARAMS:
+ R1=11.9
+ R2=0.00255
+ C= {Cpar}
+ K1=0.000001
+ K2=0.115
+ K3= {Ind}
+ K4=0.0127
+ K5=0.00005
+ L=1.032E-06
+ Is=68.7128693
+ a=0.73055513
+ L_Z0=0
+ L_EL=0
+ L_F0=0E6
+ PkZ=793.969383
.ends XAL7070-102_sat

*======================================================================
* SPICE Model generated by Coilcraft
* Coilcraft Part Number : XAL7070-122
* Inductance = 1.2uH
*======================================================================
* Model Parameters:
*   Valid Frequency Range = 0.1MHz-100MHz
*   Ambient Temperature = 25 degC
*   Inductor Frequency Model
*   Use model for Frequency Domain simulations
*======================================================================
.subckt XAL7070-122_freq port1 port2 PARAMS: Cpar=9.42pF Ind=1.2uH
X1 port1 port2 Model1A PARAMS:
+ R1=14.8
+ R2=0.0031
+ C= {Cpar}
+ K1=0.0000317
+ K2=0.135
+ K3= {Ind}
+ K4=0.000001
+ K5=0.000001
+ L=1.2476E-06
+ Is=56.6405323
+ a=0.80220696
+ L_Z0=0
+ L_EL=0
+ L_F0=0E6
+ PkZ=837.295264
.ends XAL7070-122_freq

*======================================================================
* SPICE Model generated by Coilcraft
* Coilcraft Part Number : XAL7070-122
* Inductance = 1.2uH
*======================================================================
* Model Parameters:
*   Valid Frequency Range = 0.1MHz-100MHz
*   Ambient Temperature = 25 degC
*   Inductor Saturation Model
*   Use model for Time Domain simulations
*======================================================================
.subckt XAL7070-122_sat port1 port2 PARAMS: Cpar=9.42pF Ind=1.2uH
X1 port1 port2 Model1C PARAMS:
+ R1=14.8
+ R2=0.0031
+ C= {Cpar}
+ K1=0.0000317
+ K2=0.135
+ K3= {Ind}
+ K4=0.000001
+ K5=0.000001
+ L=1.2476E-06
+ Is=56.6405323
+ a=0.80220696
+ L_Z0=0
+ L_EL=0
+ L_F0=0E6
+ PkZ=837.295264
.ends XAL7070-122_sat

*======================================================================
* SPICE Model generated by Coilcraft
* Coilcraft Part Number : XAL7070-182
* Inductance = 1.8uH
*======================================================================
* Model Parameters:
*   Valid Frequency Range = 0.1MHz-75MHz
*   Ambient Temperature = 25 degC
*   Inductor Frequency Model
*   Use model for Frequency Domain simulations
*======================================================================
.subckt XAL7070-182_freq port1 port2 PARAMS: Cpar=9.62pF Ind=1.8uH
X1 port1 port2 Model1A PARAMS:
+ R1=7.4
+ R2=0.00405
+ C= {Cpar}
+ K1=0.000001
+ K2=0.191
+ K3= {Ind}
+ K4=0.0079
+ K5=0.9
+ L=1.7704E-06
+ Is=48.0915022
+ a=0.76625641
+ L_Z0=0
+ L_EL=0
+ L_F0=0E6
+ PkZ=1145.72607
.ends XAL7070-182_freq

*======================================================================
* SPICE Model generated by Coilcraft
* Coilcraft Part Number : XAL7070-182
* Inductance = 1.8uH
*======================================================================
* Model Parameters:
*   Valid Frequency Range = 0.1MHz-75MHz
*   Ambient Temperature = 25 degC
*   Inductor Saturation Model
*   Use model for Time Domain simulations
*======================================================================
.subckt XAL7070-182_sat port1 port2 PARAMS: Cpar=8.89pF Ind=1.8uH
X1 port1 port2 Model1C PARAMS:
+ R1=7.4
+ R2=0.00405
+ C= {Cpar}
+ K1=0.000001
+ K2=0.191
+ K3= {Ind}
+ K4=0.0079
+ K5=0.9
+ L=1.7704E-06
+ Is=48.0915022
+ a=0.76625641
+ L_Z0=0
+ L_EL=0
+ L_F0=0E6
+ PkZ=1145.72607
.ends XAL7070-182_sat

*======================================================================
* SPICE Model generated by Coilcraft
* Coilcraft Part Number : XAL7070-222
* Inductance = 2.2uH
*======================================================================
* Model Parameters:
*   Valid Frequency Range = 0.1MHz-75MHz
*   Ambient Temperature = 25 degC
*   Inductor Frequency Model
*   Use model for Frequency Domain simulations
*======================================================================
.subckt XAL7070-222_freq port1 port2 PARAMS: Cpar=8.62pF Ind=2.2uH
X1 port1 port2 Model1A PARAMS:
+ R1=10.7
+ R2=0.00573
+ C= {Cpar}
+ K1=0.000151
+ K2=0.263
+ K3= {Ind}
+ K4=0.0158
+ K5=0.000001
+ L=2.348E-06
+ Is=45.2076212
+ a=0.75357965
+ L_Z0=0
+ L_EL=0
+ L_F0=0E6
+ PkZ=1489.07273
.ends XAL7070-222_freq

*======================================================================
* SPICE Model generated by Coilcraft
* Coilcraft Part Number : XAL7070-222
* Inductance = 2.2uH
*======================================================================
* Model Parameters:
*   Valid Frequency Range = 0.1MHz-75MHz
*   Ambient Temperature = 25 degC
*   Inductor Saturation Model
*   Use model for Time Domain simulations
*======================================================================
.subckt XAL7070-222_sat port1 port2 PARAMS: Cpar=8.40pF Ind=2.2uH
X1 port1 port2 Model1C PARAMS:
+ R1=10.7
+ R2=0.00573
+ C= {Cpar}
+ K1=0.000151
+ K2=0.263
+ K3= {Ind}
+ K4=0.0158
+ K5=0.000001
+ L=2.348E-06
+ Is=45.2076212
+ a=0.75357965
+ L_Z0=0
+ L_EL=0
+ L_F0=0E6
+ PkZ=1489.07273
.ends XAL7070-222_sat

*======================================================================
* SPICE Model generated by Coilcraft
* Coilcraft Part Number : XAL7070-332
* Inductance = 3.3uH
*======================================================================
* Model Parameters:
*   Valid Frequency Range = 0.1MHz-75MHz
*   Ambient Temperature = 25 degC
*   Inductor Frequency Model
*   Use model for Frequency Domain simulations
*======================================================================
.subckt XAL7070-332_freq port1 port2 PARAMS: Cpar=8.62pF Ind=3.3uH
X1 port1 port2 Model1A PARAMS:
+ R1=11.1
+ R2=0.00856
+ C= {Cpar}
+ K1=0.0000575
+ K2=0.401
+ K3= {Ind}
+ K4=0.0172
+ K5=0.126
+ L=3.0961E-06
+ Is=55.3218943
+ a=0.61555661
+ L_Z0=0
+ L_EL=0
+ L_F0=0E6
+ PkZ=2085.06454
.ends XAL7070-332_freq

*======================================================================
* SPICE Model generated by Coilcraft
* Coilcraft Part Number : XAL7070-332
* Inductance = 3.3uH
*======================================================================
* Model Parameters:
*   Valid Frequency Range = 0.1MHz-75MHz
*   Ambient Temperature = 25 degC
*   Inductor Saturation Model
*   Use model for Time Domain simulations
*======================================================================
.subckt XAL7070-332_sat port1 port2 PARAMS: Cpar=7.94pF Ind=3.3uH
X1 port1 port2 Model1C PARAMS:
+ R1=11.1
+ R2=0.00856
+ C= {Cpar}
+ K1=0.0000575
+ K2=0.401
+ K3= {Ind}
+ K4=0.0172
+ K5=0.126
+ L=3.0961E-06
+ Is=55.3218943
+ a=0.61555661
+ L_Z0=0
+ L_EL=0
+ L_F0=0E6
+ PkZ=2085.06454
.ends XAL7070-332_sat

*======================================================================
* SPICE Model generated by Coilcraft
* Coilcraft Part Number : XAL7070-472
* Inductance = 4.7uH
*======================================================================
* Model Parameters:
*   Valid Frequency Range = 0.1MHz-50MHz
*   Ambient Temperature = 25 degC
*   Inductor Frequency Model
*   Use model for Frequency Domain simulations
*======================================================================
.subckt XAL7070-472_freq port1 port2 PARAMS: Cpar=10pF Ind=4.7uH
X1 port1 port2 Model1A PARAMS:
+ R1=18.3
+ R2=0.01296
+ C= {Cpar}
+ K1=0.000001
+ K2=0.581
+ K3= {Ind}
+ K4=0.0316
+ K5=0.053
+ L=4.8727E-06
+ Is=31.5727019
+ a=0.76018538
+ L_Z0=0
+ L_EL=0
+ L_F0=0E6
+ PkZ=2554.56491
.ends XAL7070-472_freq

*======================================================================
* SPICE Model generated by Coilcraft
* Coilcraft Part Number : XAL7070-472
* Inductance = 4.7uH
*======================================================================
* Model Parameters:
*   Valid Frequency Range = 0.1MHz-50MHz
*   Ambient Temperature = 25 degC
*   Inductor Saturation Model
*   Use model for Time Domain simulations
*======================================================================
.subckt XAL7070-472_sat port1 port2 PARAMS: Cpar=9.06pF Ind=4.7uH
X1 port1 port2 Model1C PARAMS:
+ R1=18.3
+ R2=0.01296
+ C= {Cpar}
+ K1=0.000001
+ K2=0.581
+ K3= {Ind}
+ K4=0.0316
+ K5=0.053
+ L=4.8727E-06
+ Is=31.5727019
+ a=0.76018538
+ L_Z0=0
+ L_EL=0
+ L_F0=0E6
+ PkZ=2554.56491
.ends XAL7070-472_sat

*======================================================================
* SPICE Model generated by Coilcraft
* Coilcraft Part Number : XAL7070-562
* Inductance = 5.6uH
*======================================================================
* Model Parameters:
*   Valid Frequency Range = 0.1MHz-30MHz
*   Ambient Temperature = 25 degC
*   Inductor Frequency Model
*   Use model for Frequency Domain simulations
*======================================================================
.subckt XAL7070-562_freq port1 port2 PARAMS: Cpar=8.9pF Ind=5.6uH
X1 port1 port2 Model1A PARAMS:
+ R1=21.5
+ R2=0.01367
+ C= {Cpar}
+ K1=0.000001
+ K2=0.597
+ K3= {Ind}
+ K4=0.044
+ K5=0.0008
+ L=5.595E-06
+ Is=31.8133997
+ a=0.69714916
+ L_Z0=0
+ L_EL=0
+ L_F0=0E6
+ PkZ=2612.40893
.ends XAL7070-562_freq

*======================================================================
* SPICE Model generated by Coilcraft
* Coilcraft Part Number : XAL7070-562
* Inductance = 5.6uH
*======================================================================
* Model Parameters:
*   Valid Frequency Range = 0.1MHz-30MHz
*   Ambient Temperature = 25 degC
*   Inductor Saturation Model
*   Use model for Time Domain simulations
*======================================================================
.subckt XAL7070-562_sat port1 port2 PARAMS: Cpar=8.21pF Ind=5.6uH
X1 port1 port2 Model1C PARAMS:
+ R1=21.5
+ R2=0.01367
+ C= {Cpar}
+ K1=0.000001
+ K2=0.597
+ K3= {Ind}
+ K4=0.044
+ K5=0.0008
+ L=5.595E-06
+ Is=31.8133997
+ a=0.69714916
+ L_Z0=0
+ L_EL=0
+ L_F0=0E6
+ PkZ=2612.40893
.ends XAL7070-562_sat

*======================================================================
* SPICE Model generated by Coilcraft
* Coilcraft Part Number : XAL7070-682
* Inductance = 6.8uH
*======================================================================
* Model Parameters:
*   Valid Frequency Range = 0.1MHz-30MHz
*   Ambient Temperature = 25 degC
*   Inductor Frequency Model
*   Use model for Frequency Domain simulations
*======================================================================
.subckt XAL7070-682_freq port1 port2 PARAMS: Cpar=10.1pF Ind=6.8uH
X1 port1 port2 Model1A PARAMS:
+ R1=23
+ R2=0.01784
+ C= {Cpar}
+ K1=0.000001
+ K2=0.869
+ K3= {Ind}
+ K4=0.044
+ K5=0.0008
+ L=6.6969E-06
+ Is=32.0268694
+ a=0.68460018
+ L_Z0=0
+ L_EL=0
+ L_F0=0E6
+ PkZ=3392.03908
.ends XAL7070-682_freq

*======================================================================
* SPICE Model generated by Coilcraft
* Coilcraft Part Number : XAL7070-682
* Inductance = 6.8uH
*======================================================================
* Model Parameters:
*   Valid Frequency Range = 0.1MHz-30MHz
*   Ambient Temperature = 25 degC
*   Inductor Saturation Model
*   Use model for Time Domain simulations
*======================================================================
.subckt XAL7070-682_sat port1 port2 PARAMS: Cpar=9.47pF Ind=6.8uH
X1 port1 port2 Model1C PARAMS:
+ R1=23
+ R2=0.01784
+ C= {Cpar}
+ K1=0.000001
+ K2=0.869
+ K3= {Ind}
+ K4=0.044
+ K5=0.0008
+ L=6.6969E-06
+ Is=32.0268694
+ a=0.68460018
+ L_Z0=0
+ L_EL=0
+ L_F0=0E6
+ PkZ=3392.03908
.ends XAL7070-682_sat

*======================================================================
* SPICE Model generated by Coilcraft
* Coilcraft Saturation Inductor Model
*======================================================================
* Model Parameters:
*   Valid Frequency Range Varies by Inductor
*   Ambient Temperature = 25 degC
*   Current Saturable Inductor Model
*======================================================================
.subckt Model1C Lin Lout PARAMS:
+ R1=1
+ R2=1
+ C=1
+ L=1
+ Is=1
+ a=1
+ PkZ=94.2 * {L} *1e6
R2 N001 Lin {R2}
R3 Lout N001 {PkZ}
C1 N002 N001 {C}
R1 Lout N002 {R1}
E1 N003 N001 N004 0 1
G1 0 N004 VALUE={{L*Is}*tanh((I(E1)/{Is})**{a})**{1/a}}
L1 N004 0 1
E2 N003 Lout N005 0 1
G2 0 N005 VALUE={{L*Is}*tanh((I(E2)/{Is})**{a})**{1/a}}
L2 N005 0 1
.ends Model1C
*======================================================================
* SPICE Model generated by Coilcraft
* Coilcraft Power Inductor Model
*======================================================================
* Model Parameters:
*   Valid Frequency Range Varies by Inductor
*   Ambient Temperature = 25 degC
*   DC Bias Current = 0 A
*   Frequency Dependent Inductor Model
*======================================================================
.subckt Model1A Lin Lout PARAMS:
+ R1=1
+ R2=1
+ C=1
+ K1=1
+ K2=1
+ K3=1
+ K4=1
+ K5=1
R2 N001 Lin {R2}
R1 Lout N002 {R1}
C1 N002 N001 {C}
G_Rvar2 N001 Lout LAPLACE { V(N001, Lout) } {1/K2/(-S*S/4/PI^2)^0.25}
G_Rvar1 N001 N003 LAPLACE { V(N001, N003) } {1/K1/(-S*S/4/PI^2)^0.25}
G_Lvar N003 Lout  LAPLACE { V(N003, Lout) } {1/(S*1e-6*({K3*1e6}-({K4}*LOG({K5}*(sqrt(-S*S)/(2*pi))))))}
*This large resistance to ground has been added to prevent a floating node error
R3 N003 0 100Meg
.ends Model1A


.subckt Coilcraft_Inductor Lin Lout
R1 Lout Lin 100Meg
.ends Coilcraft_Inductor
