*======================================================================
* SPICE Model generated by Coilcraft
* Coilcraft Part Number : XEL3520-700
* Inductance = 0.072uH
*======================================================================
* Model Parameters:
*   Valid Frequency Range = 0.1MHz-500MHz
*   Ambient Temperature = 25 degC
*   Inductor Frequency Model
*   Use model for Frequency Domain simulations
*======================================================================
.subckt XEL3520-700_freq port1 port2 PARAMS: Cpar=2pF Ind=0.072uH
X1 port1 port2 Model1A PARAMS:
+ R1=115
+ R2=0.00245
+ C= {Cpar}
+ K1=0.000022
+ K2=0.055
+ K3= {Ind}
+ K4=0.00132
+ K5=0.0000045
+ L=7.998E-08
+ Is=36.6429024
+ a=0.79119328
+ L_Z0=0
+ L_EL=0
+ L_F0=0E6
+ PkZ=258.647966
.ends XEL3520-700_freq

*======================================================================
* SPICE Model generated by Coilcraft
* Coilcraft Part Number : XEL3520-700
* Inductance = 0.072uH
*======================================================================
* Model Parameters:
*   Valid Frequency Range = 0.1MHz-500MHz
*   Ambient Temperature = 25 degC
*   Inductor Saturation Model
*   Use model for Time Domain simulations
*======================================================================
.subckt XEL3520-700_sat port1 port2 PARAMS: Cpar=1.72pF Ind=0.072uH
X1 port1 port2 Model1C PARAMS:
+ R1=115
+ R2=0.00245
+ C= {Cpar}
+ K1=0.000022
+ K2=0.055
+ K3= {Ind}
+ K4=0.00132
+ K5=0.0000045
+ L=7.998E-08
+ Is=36.6429024
+ a=0.79119328
+ L_Z0=0
+ L_EL=0
+ L_F0=0E6
+ PkZ=258.647966
.ends XEL3520-700_sat

*======================================================================
* SPICE Model generated by Coilcraft
* Coilcraft Part Number : XEL3520-131
* Inductance = 0.133uH
*======================================================================
* Model Parameters:
*   Valid Frequency Range = 0.1MHz-300MHz
*   Ambient Temperature = 25 degC
*   Inductor Frequency Model
*   Use model for Frequency Domain simulations
*======================================================================
.subckt XEL3520-131_freq port1 port2 PARAMS: Cpar=2pF Ind=0.133uH
X1 port1 port2 Model1A PARAMS:
+ R1=99
+ R2=0.0035
+ C= {Cpar}
+ K1=0.0000473
+ K2=0.055
+ K3= {Ind}
+ K4=0.00132
+ K5=0.0000045
+ L=1.4898E-07
+ Is=26.2529386
+ a=0.77420054
+ L_Z0=0
+ L_EL=0
+ L_F0=0E6
+ PkZ=403.827494
.ends XEL3520-131_freq

*======================================================================
* SPICE Model generated by Coilcraft
* Coilcraft Part Number : XEL3520-131
* Inductance = 0.133uH
*======================================================================
* Model Parameters:
*   Valid Frequency Range = 0.1MHz-300MHz
*   Ambient Temperature = 25 degC
*   Inductor Saturation Model
*   Use model for Time Domain simulations
*======================================================================
.subckt XEL3520-131_sat port1 port2 PARAMS: Cpar=1.86pF Ind=0.133uH
X1 port1 port2 Model1C PARAMS:
+ R1=99
+ R2=0.0035
+ C= {Cpar}
+ K1=0.0000473
+ K2=0.055
+ K3= {Ind}
+ K4=0.00132
+ K5=0.0000045
+ L=1.4898E-07
+ Is=26.2529386
+ a=0.77420054
+ L_Z0=0
+ L_EL=0
+ L_F0=0E6
+ PkZ=403.827494
.ends XEL3520-131_sat

*======================================================================
* SPICE Model generated by Coilcraft
* Coilcraft Part Number : XEL3520-201
* Inductance = 0.207uH
*======================================================================
* Model Parameters:
*   Valid Frequency Range = 0.1MHz-250MHz
*   Ambient Temperature = 25 degC
*   Inductor Frequency Model
*   Use model for Frequency Domain simulations
*======================================================================
.subckt XEL3520-201_freq port1 port2 PARAMS: Cpar=2.2pF Ind=0.207uH
X1 port1 port2 Model1A PARAMS:
+ R1=77
+ R2=0.0049
+ C= {Cpar}
+ K1=0.0000936
+ K2=0.06
+ K3= {Ind}
+ K4=0.0016
+ K5=0.000005
+ L=2.2231E-07
+ Is=21.9662484
+ a=0.79068123
+ L_Z0=0
+ L_EL=0
+ L_F0=0E6
+ PkZ=523.645047
.ends XEL3520-201_freq

*======================================================================
* SPICE Model generated by Coilcraft
* Coilcraft Part Number : XEL3520-201
* Inductance = 0.207uH
*======================================================================
* Model Parameters:
*   Valid Frequency Range = 0.1MHz-250MHz
*   Ambient Temperature = 25 degC
*   Inductor Saturation Model
*   Use model for Time Domain simulations
*======================================================================
.subckt XEL3520-201_sat port1 port2 PARAMS: Cpar=2.08pF Ind=0.207uH
X1 port1 port2 Model1C PARAMS:
+ R1=77
+ R2=0.0049
+ C= {Cpar}
+ K1=0.0000936
+ K2=0.06
+ K3= {Ind}
+ K4=0.0016
+ K5=0.000005
+ L=2.2231E-07
+ Is=21.9662484
+ a=0.79068123
+ L_Z0=0
+ L_EL=0
+ L_F0=0E6
+ PkZ=523.645047
.ends XEL3520-201_sat

*======================================================================
* SPICE Model generated by Coilcraft
* Coilcraft Part Number : XEL3520-331
* Inductance = 0.341uH
*======================================================================
* Model Parameters:
*   Valid Frequency Range = 0.1MHz-170MHz
*   Ambient Temperature = 25 degC
*   Inductor Frequency Model
*   Use model for Frequency Domain simulations
*======================================================================
.subckt XEL3520-331_freq port1 port2 PARAMS: Cpar=2.3pF Ind=0.341uH
X1 port1 port2 Model1A PARAMS:
+ R1=57
+ R2=0.008
+ C= {Cpar}
+ K1=0.000185
+ K2=0.073
+ K3= {Ind}
+ K4=0.0025
+ K5=0.00001
+ L=3.4466E-07
+ Is=17.6877969
+ a=0.80361168
+ L_Z0=0
+ L_EL=0
+ L_F0=0E6
+ PkZ=702.071941
.ends XEL3520-331_freq

*======================================================================
* SPICE Model generated by Coilcraft
* Coilcraft Part Number : XEL3520-331
* Inductance = 0.341uH
*======================================================================
* Model Parameters:
*   Valid Frequency Range = 0.1MHz-170MHz
*   Ambient Temperature = 25 degC
*   Inductor Saturation Model
*   Use model for Time Domain simulations
*======================================================================
.subckt XEL3520-331_sat port1 port2 PARAMS: Cpar=2.17pF Ind=0.341uH
X1 port1 port2 Model1C PARAMS:
+ R1=57
+ R2=0.008
+ C= {Cpar}
+ K1=0.000185
+ K2=0.073
+ K3= {Ind}
+ K4=0.0025
+ K5=0.00001
+ L=3.4466E-07
+ Is=17.6877969
+ a=0.80361168
+ L_Z0=0
+ L_EL=0
+ L_F0=0E6
+ PkZ=702.071941
.ends XEL3520-331_sat

*======================================================================
* SPICE Model generated by Coilcraft
* Coilcraft Part Number : XEL3520-471
* Inductance = 0.477uH
*======================================================================
* Model Parameters:
*   Valid Frequency Range = 0.1MHz-170MHz
*   Ambient Temperature = 25 degC
*   Inductor Frequency Model
*   Use model for Frequency Domain simulations
*======================================================================
.subckt XEL3520-471_freq port1 port2 PARAMS: Cpar=2.2pF Ind=0.477uH
X1 port1 port2 Model1A PARAMS:
+ R1=55
+ R2=0.0094
+ C= {Cpar}
+ K1=0.000185
+ K2=0.085
+ K3= {Ind}
+ K4=0.004
+ K5=0.00001
+ L=4.4484E-07
+ Is=16.3134504
+ a=0.7763433
+ L_Z0=0
+ L_EL=0
+ L_F0=0E6
+ PkZ=828.298109
.ends XEL3520-471_freq

*======================================================================
* SPICE Model generated by Coilcraft
* Coilcraft Part Number : XEL3520-471
* Inductance = 0.477uH
*======================================================================
* Model Parameters:
*   Valid Frequency Range = 0.1MHz-170MHz
*   Ambient Temperature = 25 degC
*   Inductor Saturation Model
*   Use model for Time Domain simulations
*======================================================================
.subckt XEL3520-471_sat port1 port2 PARAMS: Cpar=2.06pF Ind=0.477uH
X1 port1 port2 Model1C PARAMS:
+ R1=55
+ R2=0.0094
+ C= {Cpar}
+ K1=0.000185
+ K2=0.085
+ K3= {Ind}
+ K4=0.004
+ K5=0.00001
+ L=4.4484E-07
+ Is=16.3134504
+ a=0.7763433
+ L_Z0=0
+ L_EL=0
+ L_F0=0E6
+ PkZ=828.298109
.ends XEL3520-471_sat

*======================================================================
* SPICE Model generated by Coilcraft
* Coilcraft Part Number : XEL3520-561
* Inductance = 0.56uH
*======================================================================
* Model Parameters:
*   Valid Frequency Range = 0.1MHz-150MHz
*   Ambient Temperature = 25 degC
*   Inductor Frequency Model
*   Use model for Frequency Domain simulations
*======================================================================
.subckt XEL3520-561_freq port1 port2 PARAMS: Cpar=2.8pF Ind=0.56uH
X1 port1 port2 Model1A PARAMS:
+ R1=42
+ R2=0.015
+ C= {Cpar}
+ K1=0.000168
+ K2=0.138
+ K3= {Ind}
+ K4=0.002
+ K5=0.0000074
+ L=5.5843E-07
+ Is=15.6401227
+ a=0.76037053
+ L_Z0=0
+ L_EL=0
+ L_F0=0E6
+ PkZ=1159.92561
.ends XEL3520-561_freq

*======================================================================
* SPICE Model generated by Coilcraft
* Coilcraft Part Number : XEL3520-561
* Inductance = 0.56uH
*======================================================================
* Model Parameters:
*   Valid Frequency Range = 0.1MHz-150MHz
*   Ambient Temperature = 25 degC
*   Inductor Saturation Model
*   Use model for Time Domain simulations
*======================================================================
.subckt XEL3520-561_sat port1 port2 PARAMS: Cpar=2.73pF Ind=0.56uH
X1 port1 port2 Model1C PARAMS:
+ R1=42
+ R2=0.015
+ C= {Cpar}
+ K1=0.000168
+ K2=0.138
+ K3= {Ind}
+ K4=0.002
+ K5=0.0000074
+ L=5.5843E-07
+ Is=15.6401227
+ a=0.76037053
+ L_Z0=0
+ L_EL=0
+ L_F0=0E6
+ PkZ=1159.92561
.ends XEL3520-561_sat

*======================================================================
* SPICE Model generated by Coilcraft
* Coilcraft Part Number : XEL3520-801
* Inductance = 0.805uH
*======================================================================
* Model Parameters:
*   Valid Frequency Range = 0.1MHz-120MHz
*   Ambient Temperature = 25 degC
*   Inductor Frequency Model
*   Use model for Frequency Domain simulations
*======================================================================
.subckt XEL3520-801_freq port1 port2 PARAMS: Cpar=3.3pF Ind=0.805uH
X1 port1 port2 Model1A PARAMS:
+ R1=42
+ R2=0.021
+ C= {Cpar}
+ K1=0.000195
+ K2=0.193
+ K3= {Ind}
+ K4=0.00182
+ K5=0.00000526
+ L=7.744E-07
+ Is=12.8680203
+ a=0.76035818
+ L_Z0=0
+ L_EL=0
+ L_F0=0E6
+ PkZ=1420.39263
.ends XEL3520-801_freq

*======================================================================
* SPICE Model generated by Coilcraft
* Coilcraft Part Number : XEL3520-801
* Inductance = 0.805uH
*======================================================================
* Model Parameters:
*   Valid Frequency Range = 0.1MHz-120MHz
*   Ambient Temperature = 25 degC
*   Inductor Saturation Model
*   Use model for Time Domain simulations
*======================================================================
.subckt XEL3520-801_sat port1 port2 PARAMS: Cpar=3.25pF Ind=0.805uH
X1 port1 port2 Model1C PARAMS:
+ R1=42
+ R2=0.021
+ C= {Cpar}
+ K1=0.000195
+ K2=0.193
+ K3= {Ind}
+ K4=0.00182
+ K5=0.00000526
+ L=7.744E-07
+ Is=12.8680203
+ a=0.76035818
+ L_Z0=0
+ L_EL=0
+ L_F0=0E6
+ PkZ=1420.39263
.ends XEL3520-801_sat

*======================================================================
* SPICE Model generated by Coilcraft
* Coilcraft Part Number : XEL3520-112
* Inductance = 1.1uH
*======================================================================
* Model Parameters:
*   Valid Frequency Range = 0.1MHz-100MHz
*   Ambient Temperature = 25 degC
*   Inductor Frequency Model
*   Use model for Frequency Domain simulations
*======================================================================
.subckt XEL3520-112_freq port1 port2 PARAMS: Cpar=3.2pF Ind=1.1uH
X1 port1 port2 Model1A PARAMS:
+ R1=31
+ R2=0.032
+ C= {Cpar}
+ K1=0.000138
+ K2=0.247
+ K3= {Ind}
+ K4=0.0015
+ K5=0.00000705
+ L=1.0224E-06
+ Is=10.5127345
+ a=0.76096495
+ L_Z0=0
+ L_EL=0
+ L_F0=0E6
+ PkZ=1875.89303
.ends XEL3520-112_freq

*======================================================================
* SPICE Model generated by Coilcraft
* Coilcraft Part Number : XEL3520-112
* Inductance = 1.1uH
*======================================================================
* Model Parameters:
*   Valid Frequency Range = 0.1MHz-100MHz
*   Ambient Temperature = 25 degC
*   Inductor Saturation Model
*   Use model for Time Domain simulations
*======================================================================
.subckt XEL3520-112_sat port1 port2 PARAMS: Cpar=3.17pF Ind=1.1uH
X1 port1 port2 Model1C PARAMS:
+ R1=31
+ R2=0.032
+ C= {Cpar}
+ K1=0.000138
+ K2=0.247
+ K3= {Ind}
+ K4=0.0015
+ K5=0.00000705
+ L=1.0224E-06
+ Is=10.5127345
+ a=0.76096495
+ L_Z0=0
+ L_EL=0
+ L_F0=0E6
+ PkZ=1875.89303
.ends XEL3520-112_sat

*======================================================================
* SPICE Model generated by Coilcraft
* Coilcraft Part Number : XEL3520-122
* Inductance = 1.2uH
*======================================================================
* Model Parameters:
*   Valid Frequency Range = 0.1MHz-100MHz
*   Ambient Temperature = 25 degC
*   Inductor Frequency Model
*   Use model for Frequency Domain simulations
*======================================================================
.subckt XEL3520-122_freq port1 port2 PARAMS: Cpar=3.5pF Ind=1.2uH
X1 port1 port2 Model1A PARAMS:
+ R1=30
+ R2=0.035
+ C= {Cpar}
+ K1=0.000138
+ K2=0.286
+ K3= {Ind}
+ K4=0.0012
+ K5=0.0000058
+ L=1.1711E-06
+ Is=10.1306746
+ a=0.75856739
+ L_Z0=0
+ L_EL=0
+ L_F0=0E6
+ PkZ=2051.059
.ends XEL3520-122_freq

*======================================================================
* SPICE Model generated by Coilcraft
* Coilcraft Part Number : XEL3520-122
* Inductance = 1.2uH
*======================================================================
* Model Parameters:
*   Valid Frequency Range = 0.1MHz-100MHz
*   Ambient Temperature = 25 degC
*   Inductor Saturation Model
*   Use model for Time Domain simulations
*======================================================================
.subckt XEL3520-122_sat port1 port2 PARAMS: Cpar=3.48pF Ind=1.2uH
X1 port1 port2 Model1C PARAMS:
+ R1=30
+ R2=0.035
+ C= {Cpar}
+ K1=0.000138
+ K2=0.286
+ K3= {Ind}
+ K4=0.0012
+ K5=0.0000058
+ L=1.1711E-06
+ Is=10.1306746
+ a=0.75856739
+ L_Z0=0
+ L_EL=0
+ L_F0=0E6
+ PkZ=2051.059
.ends XEL3520-122_sat

*======================================================================
* SPICE Model generated by Coilcraft
* Coilcraft Saturation Inductor Model
*======================================================================
* Model Parameters:
*   Valid Frequency Range Varies by Inductor
*   Ambient Temperature = 25 degC
*   Current Saturable Inductor Model
*======================================================================
.subckt Model1C Lin Lout PARAMS:
+ R1=1
+ R2=1
+ C=1
+ L=1
+ Is=1
+ a=1
+ PkZ=94.2 * {L} *1e6
R2 N001 Lin {R2}
R3 Lout N001 {PkZ}
C1 N002 N001 {C}
R1 Lout N002 {R1}
E1 N003 N001 N004 0 1
G1 0 N004 VALUE={{L*Is}*tanh((I(E1)/{Is})**{a})**{1/a}}
L1 N004 0 1
E2 N003 Lout N005 0 1
G2 0 N005 VALUE={{L*Is}*tanh((I(E2)/{Is})**{a})**{1/a}}
L2 N005 0 1
.ends Model1C
*======================================================================
* SPICE Model generated by Coilcraft
* Coilcraft Power Inductor Model
*======================================================================
* Model Parameters:
*   Valid Frequency Range Varies by Inductor
*   Ambient Temperature = 25 degC
*   DC Bias Current = 0 A
*   Frequency Dependent Inductor Model
*======================================================================
.subckt Model1A Lin Lout PARAMS:
+ R1=1
+ R2=1
+ C=1
+ K1=1
+ K2=1
+ K3=1
+ K4=1
+ K5=1
R2 N001 Lin {R2}
R1 Lout N002 {R1}
C1 N002 N001 {C}
G_Rvar2 N001 Lout LAPLACE { V(N001, Lout) } {1/K2/(-S*S/4/PI^2)^0.25}
G_Rvar1 N001 N003 LAPLACE { V(N001, N003) } {1/K1/(-S*S/4/PI^2)^0.25}
G_Lvar N003 Lout  LAPLACE { V(N003, Lout) } {1/(S*1e-6*({K3*1e6}-({K4}*LOG({K5}*(sqrt(-S*S)/(2*pi))))))}
*This large resistance to ground has been added to prevent a floating node error
R3 N003 0 100Meg
.ends Model1A


.subckt Coilcraft_Inductor Lin Lout
R1 Lout Lin 100Meg
.ends Coilcraft_Inductor
