*======================================================================
* SPICE Model generated by Coilcraft
* Coilcraft Part Number : XEL4020-101
* Inductance = 0.1075uH
*======================================================================
* Model Parameters:
*   Valid Frequency Range = 1MHz-500MHz
*   Ambient Temperature = 25 degC
*   Inductor Frequency Model
*   Use model for Frequency Domain simulations
*======================================================================
.subckt XEL4020-101_freq port1 port2 PARAMS: Cpar=3.4pF Ind=0.1075uH
X1 port1 port2 Model1A PARAMS:
+ R1=45
+ R2=0.00204
+ C= {Cpar}
+ K1=0.00000134
+ K2=0.05
+ K3= {Ind}
+ K4=0.00112
+ K5=0.00072
+ L=0
+ Is=0
+ a=0
+ L_Z0=0
+ L_EL=0
+ L_F0=0E6
+ PkZ=364.642049
.ends XEL4020-101_freq

*======================================================================
* SPICE Model generated by Coilcraft
* Coilcraft Part Number : XEL4020-101
* Inductance = 0.1075uH
*======================================================================
* Model Parameters:
*   Valid Frequency Range = 1MHz-500MHz
*   Ambient Temperature = 25 degC
*   Inductor Impedance Model
*   Use model for Time Domain simulations
*======================================================================
.subckt XEL4020-101_imp port1 port2 PARAMS: Cpar=2.97pF Ind=0.1075uH
X1 port1 port2 Model1D PARAMS:
+ R1=45
+ R2=0.00204
+ C= {Cpar}
+ K1=0.00000134
+ K2=0.05
+ K3= {Ind}
+ K4=0.00112
+ K5=0.00072
+ L=0
+ Is=0
+ a=0
+ L_Z0=0
+ L_EL=0
+ L_F0=0E6
+ PkZ=364.642049
.ends XEL4020-101_imp

*======================================================================
* SPICE Model generated by Coilcraft
* Coilcraft Part Number : XEL4020-201
* Inductance = 0.208uH
*======================================================================
* Model Parameters:
*   Valid Frequency Range = 1MHz-400MHz
*   Ambient Temperature = 25 degC
*   Inductor Frequency Model
*   Use model for Frequency Domain simulations
*======================================================================
.subckt XEL4020-201_freq port1 port2 PARAMS: Cpar=4.5pF Ind=0.208uH
X1 port1 port2 Model1A PARAMS:
+ R1=70
+ R2=0.00304
+ C= {Cpar}
+ K1=0.00000134
+ K2=0.2
+ K3= {Ind}
+ K4=0.00112
+ K5=0.01
+ L=0
+ Is=0
+ a=0
+ L_Z0=0
+ L_EL=0
+ L_F0=0E6
+ PkZ=520.686446
.ends XEL4020-201_freq

*======================================================================
* SPICE Model generated by Coilcraft
* Coilcraft Part Number : XEL4020-201
* Inductance = 0.208uH
*======================================================================
* Model Parameters:
*   Valid Frequency Range = 1MHz-400MHz
*   Ambient Temperature = 25 degC
*   Inductor Impedance Model
*   Use model for Time Domain simulations
*======================================================================
.subckt XEL4020-201_imp port1 port2 PARAMS: Cpar=4.15pF Ind=0.208uH
X1 port1 port2 Model1D PARAMS:
+ R1=70
+ R2=0.00304
+ C= {Cpar}
+ K1=0.00000134
+ K2=0.2
+ K3= {Ind}
+ K4=0.00112
+ K5=0.01
+ L=0
+ Is=0
+ a=0
+ L_Z0=0
+ L_EL=0
+ L_F0=0E6
+ PkZ=520.686446
.ends XEL4020-201_imp

*======================================================================
* SPICE Model generated by Coilcraft
* Coilcraft Part Number : XEL4020-331
* Inductance = 0.35uH
*======================================================================
* Model Parameters:
*   Valid Frequency Range = 1MHz-300MHz
*   Ambient Temperature = 25 degC
*   Inductor Frequency Model
*   Use model for Frequency Domain simulations
*======================================================================
.subckt XEL4020-331_freq port1 port2 PARAMS: Cpar=5.2pF Ind=0.35uH
X1 port1 port2 Model1A PARAMS:
+ R1=55
+ R2=0.00518
+ C= {Cpar}
+ K1=0.00000134
+ K2=0.2
+ K3= {Ind}
+ K4=0.00112
+ K5=0.01
+ L=0
+ Is=0
+ a=0
+ L_Z0=0
+ L_EL=0
+ L_F0=0E6
+ PkZ=778.439642
.ends XEL4020-331_freq

*======================================================================
* SPICE Model generated by Coilcraft
* Coilcraft Part Number : XEL4020-331
* Inductance = 0.35uH
*======================================================================
* Model Parameters:
*   Valid Frequency Range = 1MHz-300MHz
*   Ambient Temperature = 25 degC
*   Inductor Impedance Model
*   Use model for Time Domain simulations
*======================================================================
.subckt XEL4020-331_imp port1 port2 PARAMS: Cpar=4.97pF Ind=0.35uH
X1 port1 port2 Model1D PARAMS:
+ R1=55
+ R2=0.00518
+ C= {Cpar}
+ K1=0.00000134
+ K2=0.2
+ K3= {Ind}
+ K4=0.00112
+ K5=0.01
+ L=0
+ Is=0
+ a=0
+ L_Z0=0
+ L_EL=0
+ L_F0=0E6
+ PkZ=778.439642
.ends XEL4020-331_imp

*======================================================================
* SPICE Model generated by Coilcraft
* Coilcraft Part Number : XEL4020-561
* Inductance = 0.57uH
*======================================================================
* Model Parameters:
*   Valid Frequency Range = 1MHz-200MHz
*   Ambient Temperature = 25 degC
*   Inductor Frequency Model
*   Use model for Frequency Domain simulations
*======================================================================
.subckt XEL4020-561_freq port1 port2 PARAMS: Cpar=5.6pF Ind=0.57uH
X1 port1 port2 Model1A PARAMS:
+ R1=60
+ R2=0.008
+ C= {Cpar}
+ K1=0.00000134
+ K2=0.4
+ K3= {Ind}
+ K4=0.00112
+ K5=0.01
+ L=0
+ Is=0
+ a=0
+ L_Z0=0
+ L_EL=0
+ L_F0=0E6
+ PkZ=1169.5368
.ends XEL4020-561_freq

*======================================================================
* SPICE Model generated by Coilcraft
* Coilcraft Part Number : XEL4020-561
* Inductance = 0.57uH
*======================================================================
* Model Parameters:
*   Valid Frequency Range = 1MHz-200MHz
*   Ambient Temperature = 25 degC
*   Inductor Impedance Model
*   Use model for Time Domain simulations
*======================================================================
.subckt XEL4020-561_imp port1 port2 PARAMS: Cpar=5.45pF Ind=0.57uH
X1 port1 port2 Model1D PARAMS:
+ R1=60
+ R2=0.008
+ C= {Cpar}
+ K1=0.00000134
+ K2=0.4
+ K3= {Ind}
+ K4=0.00112
+ K5=0.01
+ L=0
+ Is=0
+ a=0
+ L_Z0=0
+ L_EL=0
+ L_F0=0E6
+ PkZ=1169.5368
.ends XEL4020-561_imp

*======================================================================
* SPICE Model generated by Coilcraft
* Coilcraft Part Number : XEL4020-821
* Inductance = 0.83uH
*======================================================================
* Model Parameters:
*   Valid Frequency Range = 1MHz-200MHz
*   Ambient Temperature = 25 degC
*   Inductor Frequency Model
*   Use model for Frequency Domain simulations
*======================================================================
.subckt XEL4020-821_freq port1 port2 PARAMS: Cpar=5.7pF Ind=0.83uH
X1 port1 port2 Model1A PARAMS:
+ R1=55
+ R2=0.0118
+ C= {Cpar}
+ K1=0.00000134
+ K2=0.48
+ K3= {Ind}
+ K4=0.00112
+ K5=0.01
+ L=0
+ Is=0
+ a=0
+ L_Z0=0
+ L_EL=0
+ L_F0=0E6
+ PkZ=1608.54343
.ends XEL4020-821_freq

*======================================================================
* SPICE Model generated by Coilcraft
* Coilcraft Part Number : XEL4020-821
* Inductance = 0.83uH
*======================================================================
* Model Parameters:
*   Valid Frequency Range = 1MHz-200MHz
*   Ambient Temperature = 25 degC
*   Inductor Impedance Model
*   Use model for Time Domain simulations
*======================================================================
.subckt XEL4020-821_imp port1 port2 PARAMS: Cpar=5.60pF Ind=0.83uH
X1 port1 port2 Model1D PARAMS:
+ R1=55
+ R2=0.0118
+ C= {Cpar}
+ K1=0.00000134
+ K2=0.48
+ K3= {Ind}
+ K4=0.00112
+ K5=0.01
+ L=0
+ Is=0
+ a=0
+ L_Z0=0
+ L_EL=0
+ L_F0=0E6
+ PkZ=1608.54343
.ends XEL4020-821_imp

*======================================================================
* SPICE Model generated by Coilcraft
* Coilcraft Part Number : XEL4020-102
* Inductance = 1.02uH
*======================================================================
* Model Parameters:
*   Valid Frequency Range = 1MHz-100MHz
*   Ambient Temperature = 25 degC
*   Inductor Frequency Model
*   Use model for Frequency Domain simulations
*======================================================================
.subckt XEL4020-102_freq port1 port2 PARAMS: Cpar=6.1pF Ind=1.02uH
X1 port1 port2 Model1A PARAMS:
+ R1=50
+ R2=0.01325
+ C= {Cpar}
+ K1=0.00000134
+ K2=0.48
+ K3= {Ind}
+ K4=0.00112
+ K5=0.01
+ L=0
+ Is=0
+ a=0
+ L_Z0=0
+ L_EL=0
+ L_F0=0E6
+ PkZ=1785.51107
.ends XEL4020-102_freq

*======================================================================
* SPICE Model generated by Coilcraft
* Coilcraft Part Number : XEL4020-102
* Inductance = 1.02uH
*======================================================================
* Model Parameters:
*   Valid Frequency Range = 1MHz-100MHz
*   Ambient Temperature = 25 degC
*   Inductor Impedance Model
*   Use model for Time Domain simulations
*======================================================================
.subckt XEL4020-102_imp port1 port2 PARAMS: Cpar=6.01pF Ind=1.02uH
X1 port1 port2 Model1D PARAMS:
+ R1=50
+ R2=0.01325
+ C= {Cpar}
+ K1=0.00000134
+ K2=0.48
+ K3= {Ind}
+ K4=0.00112
+ K5=0.01
+ L=0
+ Is=0
+ a=0
+ L_Z0=0
+ L_EL=0
+ L_F0=0E6
+ PkZ=1785.51107
.ends XEL4020-102_imp

*======================================================================
* SPICE Model generated by Coilcraft
* Coilcraft Part Number : XEL4020-122
* Inductance = 1.21uH
*======================================================================
* Model Parameters:
*   Valid Frequency Range = 1MHz-100MHz
*   Ambient Temperature = 25 degC
*   Inductor Frequency Model
*   Use model for Frequency Domain simulations
*======================================================================
.subckt XEL4020-122_freq port1 port2 PARAMS: Cpar=6.1pF Ind=1.21uH
X1 port1 port2 Model1A PARAMS:
+ R1=55
+ R2=0.01775
+ C= {Cpar}
+ K1=0.00000134
+ K2=0.66
+ K3= {Ind}
+ K4=0.00112
+ K5=0.01
+ L=0
+ Is=0
+ a=0
+ L_Z0=0
+ L_EL=0
+ L_F0=0E6
+ PkZ=2104.83869
.ends XEL4020-122_freq

*======================================================================
* SPICE Model generated by Coilcraft
* Coilcraft Part Number : XEL4020-122
* Inductance = 1.21uH
*======================================================================
* Model Parameters:
*   Valid Frequency Range = 1MHz-100MHz
*   Ambient Temperature = 25 degC
*   Inductor Impedance Model
*   Use model for Time Domain simulations
*======================================================================
.subckt XEL4020-122_imp port1 port2 PARAMS: Cpar=6.03pF Ind=1.21uH
X1 port1 port2 Model1D PARAMS:
+ R1=55
+ R2=0.01775
+ C= {Cpar}
+ K1=0.00000134
+ K2=0.66
+ K3= {Ind}
+ K4=0.00112
+ K5=0.01
+ L=0
+ Is=0
+ a=0
+ L_Z0=0
+ L_EL=0
+ L_F0=0E6
+ PkZ=2104.83869
.ends XEL4020-122_imp

*======================================================================
* SPICE Model generated by Coilcraft
* Coilcraft Part Number : XEL4020-152
* Inductance = 1.51uH
*======================================================================
* Model Parameters:
*   Valid Frequency Range = 1MHz-100MHz
*   Ambient Temperature = 25 degC
*   Inductor Frequency Model
*   Use model for Frequency Domain simulations
*======================================================================
.subckt XEL4020-152_freq port1 port2 PARAMS: Cpar=5.1pF Ind=1.51uH
X1 port1 port2 Model1A PARAMS:
+ R1=50
+ R2=0.02145
+ C= {Cpar}
+ K1=0.00000134
+ K2=0.8
+ K3= {Ind}
+ K4=0.00112
+ K5=0.01
+ L=0
+ Is=0
+ a=0
+ L_Z0=0
+ L_EL=0
+ L_F0=0E6
+ PkZ=2992.59736
.ends XEL4020-152_freq

*======================================================================
* SPICE Model generated by Coilcraft
* Coilcraft Part Number : XEL4020-152
* Inductance = 1.51uH
*======================================================================
* Model Parameters:
*   Valid Frequency Range = 1MHz-100MHz
*   Ambient Temperature = 25 degC
*   Inductor Impedance Model
*   Use model for Time Domain simulations
*======================================================================
.subckt XEL4020-152_imp port1 port2 PARAMS: Cpar=5.05pF Ind=1.51uH
X1 port1 port2 Model1D PARAMS:
+ R1=50
+ R2=0.02145
+ C= {Cpar}
+ K1=0.00000134
+ K2=0.8
+ K3= {Ind}
+ K4=0.00112
+ K5=0.01
+ L=0
+ Is=0
+ a=0
+ L_Z0=0
+ L_EL=0
+ L_F0=0E6
+ PkZ=2992.59736
.ends XEL4020-152_imp

*======================================================================
* SPICE Model generated by Coilcraft
* Coilcraft Part Number : XEL4020-222
* Inductance = 2.21uH
*======================================================================
* Model Parameters:
*   Valid Frequency Range = 1MHz-80MHz
*   Ambient Temperature = 25 degC
*   Inductor Frequency Model
*   Use model for Frequency Domain simulations
*======================================================================
.subckt XEL4020-222_freq port1 port2 PARAMS: Cpar=5.9pF Ind=2.21uH
X1 port1 port2 Model1A PARAMS:
+ R1=50
+ R2=0.0352
+ C= {Cpar}
+ K1=0.00000134
+ K2=1.5
+ K3= {Ind}
+ K4=0.00112
+ K5=0.01
+ L=0
+ Is=0
+ a=0
+ L_Z0=0
+ L_EL=0
+ L_F0=0E6
+ PkZ=4273.46248
.ends XEL4020-222_freq

*======================================================================
* SPICE Model generated by Coilcraft
* Coilcraft Part Number : XEL4020-222
* Inductance = 2.21uH
*======================================================================
* Model Parameters:
*   Valid Frequency Range = 1MHz-80MHz
*   Ambient Temperature = 25 degC
*   Inductor Impedance Model
*   Use model for Time Domain simulations
*======================================================================
.subckt XEL4020-222_imp port1 port2 PARAMS: Cpar=5.86pF Ind=2.21uH
X1 port1 port2 Model1D PARAMS:
+ R1=50
+ R2=0.0352
+ C= {Cpar}
+ K1=0.00000134
+ K2=1.5
+ K3= {Ind}
+ K4=0.00112
+ K5=0.01
+ L=0
+ Is=0
+ a=0
+ L_Z0=0
+ L_EL=0
+ L_F0=0E6
+ PkZ=4273.46248
.ends XEL4020-222_imp

*======================================================================
* SPICE Model generated by Coilcraft
* Coilcraft Impedance Inductor Model
*======================================================================
* Model Parameters:
*   Valid Frequency Range Varies by Inductor
*   Ambient Temperature = 25 degC
*   Time Domain Inductor Impedance Model
*======================================================================
.subckt Model1D Lin Lout PARAMS:
+ R1=1
+ R2=1
+ C=1
+ K3=1
+ PkZ=1
R2 Lin N001 {R2}
R3 N001 Lout {PkZ}
C1 N001 N002 {C}
R1 N002 Lout {R1}
L1 N001 Lout {K3}
.ends Model1D

*======================================================================
* SPICE Model generated by Coilcraft
* Coilcraft Power Inductor Model
*======================================================================
* Model Parameters:
*   Valid Frequency Range Varies by Inductor
*   Ambient Temperature = 25 degC
*   DC Bias Current = 0 A
*   Frequency Dependent Inductor Model
*======================================================================
.subckt Model1A Lin Lout PARAMS:
+ R1=1
+ R2=1
+ C=1
+ K1=1
+ K2=1
+ K3=1
+ K4=1
+ K5=1
R2 N001 Lin {R2}
R1 Lout N002 {R1}
C1 N002 N001 {C}
G_Rvar2 N001 Lout LAPLACE { V(N001, Lout) } {1/K2/(-S*S/4/PI^2)^0.25}
G_Rvar1 N001 N003 LAPLACE { V(N001, N003) } {1/K1/(-S*S/4/PI^2)^0.25}
G_Lvar N003 Lout  LAPLACE { V(N003, Lout) } {1/(S*1e-6*({K3*1e6}-({K4}*LOG({K5}*(sqrt(-S*S)/(2*pi))))))}
*This large resistance to ground has been added to prevent a floating node error
R3 N003 0 100Meg
.ends Model1A


.subckt Coilcraft_Inductor Lin Lout
R1 Lout Lin 100Meg
.ends Coilcraft_Inductor
