*======================================================================
* SPICE Model generated by Coilcraft
* Coilcraft Part Number : XEL5030-131
* Inductance = 0.14uH
*======================================================================
* Model Parameters:
*   Valid Frequency Range = 0.1MHz-280MHz
*   Ambient Temperature = 25 degC
*   Inductor Frequency Model
*   Use model for Frequency Domain simulations
*======================================================================
.subckt XEL5030-131_freq port1 port2 PARAMS: Cpar=5.62pF Ind=0.14uH
X1 port1 port2 Model1A PARAMS:
+ R1=66.4
+ R2=0.00153
+ C= {Cpar}
+ K1=0.000001
+ K2=0.184
+ K3= {Ind}
+ K4=0.001
+ K5=0.01
+ L=1.3075E-07
+ Is=108.736802
+ a=0.65370317
+ L_Z0=0
+ L_EL=0
+ L_F0=0E6
+ PkZ=324.470817
.ends XEL5030-131_freq

*======================================================================
* SPICE Model generated by Coilcraft
* Coilcraft Part Number : XEL5030-131
* Inductance = 0.14uH
*======================================================================
* Model Parameters:
*   Valid Frequency Range = 0.1MHz-280MHz
*   Ambient Temperature = 25 degC
*   Inductor Saturation Model
*   Use model for Time Domain simulations
*======================================================================
.subckt XEL5030-131_sat port1 port2 PARAMS: Cpar=5.04pF Ind=0.14uH
X1 port1 port2 Model1C PARAMS:
+ R1=66.4
+ R2=0.00153
+ C= {Cpar}
+ K1=0.000001
+ K2=0.184
+ K3= {Ind}
+ K4=0.001
+ K5=0.01
+ L=1.3075E-07
+ Is=108.736802
+ a=0.65370317
+ L_Z0=0
+ L_EL=0
+ L_F0=0E6
+ PkZ=324.470817
.ends XEL5030-131_sat

*======================================================================
* SPICE Model generated by Coilcraft
* Coilcraft Part Number : XEL5030-261
* Inductance = 0.26uH
*======================================================================
* Model Parameters:
*   Valid Frequency Range = 0.1MHz-260MHz
*   Ambient Temperature = 25 degC
*   Inductor Frequency Model
*   Use model for Frequency Domain simulations
*======================================================================
.subckt XEL5030-261_freq port1 port2 PARAMS: Cpar=7.48pF Ind=0.26uH
X1 port1 port2 Model1A PARAMS:
+ R1=25.3
+ R2=0.00216
+ C= {Cpar}
+ K1=0.000001
+ K2=0.0753
+ K3= {Ind}
+ K4=0.001
+ K5=0.01
+ L=2.6078E-07
+ Is=78.9753233
+ a=0.63656204
+ L_Z0=0
+ L_EL=0
+ L_F0=0E6
+ PkZ=504.110628
.ends XEL5030-261_freq

*======================================================================
* SPICE Model generated by Coilcraft
* Coilcraft Part Number : XEL5030-261
* Inductance = 0.26uH
*======================================================================
* Model Parameters:
*   Valid Frequency Range = 0.1MHz-260MHz
*   Ambient Temperature = 25 degC
*   Inductor Saturation Model
*   Use model for Time Domain simulations
*======================================================================
.subckt XEL5030-261_sat port1 port2 PARAMS: Cpar=7.08pF Ind=0.26uH
X1 port1 port2 Model1C PARAMS:
+ R1=25.3
+ R2=0.00216
+ C= {Cpar}
+ K1=0.000001
+ K2=0.0753
+ K3= {Ind}
+ K4=0.001
+ K5=0.01
+ L=2.6078E-07
+ Is=78.9753233
+ a=0.63656204
+ L_Z0=0
+ L_EL=0
+ L_F0=0E6
+ PkZ=504.110628
.ends XEL5030-261_sat

*======================================================================
* SPICE Model generated by Coilcraft
* Coilcraft Part Number : XEL5030-421
* Inductance = 0.422uH
*======================================================================
* Model Parameters:
*   Valid Frequency Range = 0.1MHz-240MHz
*   Ambient Temperature = 25 degC
*   Inductor Frequency Model
*   Use model for Frequency Domain simulations
*======================================================================
.subckt XEL5030-421_freq port1 port2 PARAMS: Cpar=6.98pF Ind=0.422uH
X1 port1 port2 Model1A PARAMS:
+ R1=26.6
+ R2=0.003
+ C= {Cpar}
+ K1=0.000001
+ K2=0.146
+ K3= {Ind}
+ K4=0.001
+ K5=0.01
+ L=4.273E-07
+ Is=51.8039705
+ a=0.72294257
+ L_Z0=0
+ L_EL=0
+ L_F0=0E6
+ PkZ=865.07528
.ends XEL5030-421_freq

*======================================================================
* SPICE Model generated by Coilcraft
* Coilcraft Part Number : XEL5030-421
* Inductance = 0.422uH
*======================================================================
* Model Parameters:
*   Valid Frequency Range = 0.1MHz-240MHz
*   Ambient Temperature = 25 degC
*   Inductor Saturation Model
*   Use model for Time Domain simulations
*======================================================================
.subckt XEL5030-421_sat port1 port2 PARAMS: Cpar=6.75pF Ind=0.422uH
X1 port1 port2 Model1C PARAMS:
+ R1=26.6
+ R2=0.003
+ C= {Cpar}
+ K1=0.000001
+ K2=0.146
+ K3= {Ind}
+ K4=0.001
+ K5=0.01
+ L=4.273E-07
+ Is=51.8039705
+ a=0.72294257
+ L_Z0=0
+ L_EL=0
+ L_F0=0E6
+ PkZ=865.07528
.ends XEL5030-421_sat

*======================================================================
* SPICE Model generated by Coilcraft
* Coilcraft Part Number : XEL5030-601
* Inductance = 0.6uH
*======================================================================
* Model Parameters:
*   Valid Frequency Range = 0.1MHz-200MHz
*   Ambient Temperature = 25 degC
*   Inductor Frequency Model
*   Use model for Frequency Domain simulations
*======================================================================
.subckt XEL5030-601_freq port1 port2 PARAMS: Cpar=8.54pF Ind=0.6uH
X1 port1 port2 Model1A PARAMS:
+ R1=28.4
+ R2=0.00444
+ C= {Cpar}
+ K1=0.000001
+ K2=0.368
+ K3= {Ind}
+ K4=0.001
+ K5=0.01
+ L=6.2513E-07
+ Is=48.4603868
+ a=0.71176826
+ L_Z0=0
+ L_EL=0
+ L_F0=0E6
+ PkZ=1365.35262
.ends XEL5030-601_freq

*======================================================================
* SPICE Model generated by Coilcraft
* Coilcraft Part Number : XEL5030-601
* Inductance = 0.6uH
*======================================================================
* Model Parameters:
*   Valid Frequency Range = 0.1MHz-200MHz
*   Ambient Temperature = 25 degC
*   Inductor Saturation Model
*   Use model for Time Domain simulations
*======================================================================
.subckt XEL5030-601_sat port1 port2 PARAMS: Cpar=8.35pF Ind=0.6uH
X1 port1 port2 Model1C PARAMS:
+ R1=28.4
+ R2=0.00444
+ C= {Cpar}
+ K1=0.000001
+ K2=0.368
+ K3= {Ind}
+ K4=0.001
+ K5=0.01
+ L=6.2513E-07
+ Is=48.4603868
+ a=0.71176826
+ L_Z0=0
+ L_EL=0
+ L_F0=0E6
+ PkZ=1365.35262
.ends XEL5030-601_sat

*======================================================================
* SPICE Model generated by Coilcraft
* Coilcraft Part Number : XEL5030-102
* Inductance = 0.99uH
*======================================================================
* Model Parameters:
*   Valid Frequency Range = 0.1MHz-180MHz
*   Ambient Temperature = 25 degC
*   Inductor Frequency Model
*   Use model for Frequency Domain simulations
*======================================================================
.subckt XEL5030-102_freq port1 port2 PARAMS: Cpar=8.55pF Ind=0.99uH
X1 port1 port2 Model1A PARAMS:
+ R1=17.6
+ R2=0.007
+ C= {Cpar}
+ K1=0.000001
+ K2=0.388
+ K3= {Ind}
+ K4=0.001
+ K5=0.01
+ L=9.6506E-07
+ Is=38.8096114
+ a=0.69281875
+ L_Z0=0
+ L_EL=0
+ L_F0=0E6
+ PkZ=1995.75775
.ends XEL5030-102_freq

*======================================================================
* SPICE Model generated by Coilcraft
* Coilcraft Part Number : XEL5030-102
* Inductance = 0.99uH
*======================================================================
* Model Parameters:
*   Valid Frequency Range = 0.1MHz-180MHz
*   Ambient Temperature = 25 degC
*   Inductor Saturation Model
*   Use model for Time Domain simulations
*======================================================================
.subckt XEL5030-102_sat port1 port2 PARAMS: Cpar=8.44pF Ind=0.99uH
X1 port1 port2 Model1C PARAMS:
+ R1=17.6
+ R2=0.007
+ C= {Cpar}
+ K1=0.000001
+ K2=0.388
+ K3= {Ind}
+ K4=0.001
+ K5=0.01
+ L=9.6506E-07
+ Is=38.8096114
+ a=0.69281875
+ L_Z0=0
+ L_EL=0
+ L_F0=0E6
+ PkZ=1995.75775
.ends XEL5030-102_sat

*======================================================================
* SPICE Model generated by Coilcraft
* Coilcraft Part Number : XEL5030-122
* Inductance = 1.2uH
*======================================================================
* Model Parameters:
*   Valid Frequency Range = 0.1MHz-100MHz
*   Ambient Temperature = 25 degC
*   Inductor Frequency Model
*   Use model for Frequency Domain simulations
*======================================================================
.subckt XEL5030-122_freq port1 port2 PARAMS: Cpar=8.54pF Ind=1.2uH
X1 port1 port2 Model1A PARAMS:
+ R1=18.4
+ R2=0.0088
+ C= {Cpar}
+ K1=0.000001
+ K2=0.508
+ K3= {Ind}
+ K4=0.001
+ K5=0.01
+ L=1.2303E-06
+ Is=36.997279
+ a=0.66634207
+ L_Z0=0
+ L_EL=0
+ L_F0=0E6
+ PkZ=2435.5288
.ends XEL5030-122_freq

*======================================================================
* SPICE Model generated by Coilcraft
* Coilcraft Part Number : XEL5030-122
* Inductance = 1.2uH
*======================================================================
* Model Parameters:
*   Valid Frequency Range = 0.1MHz-100MHz
*   Ambient Temperature = 25 degC
*   Inductor Saturation Model
*   Use model for Time Domain simulations
*======================================================================
.subckt XEL5030-122_sat port1 port2 PARAMS: Cpar=8.45pF Ind=1.2uH
X1 port1 port2 Model1C PARAMS:
+ R1=18.4
+ R2=0.0088
+ C= {Cpar}
+ K1=0.000001
+ K2=0.508
+ K3= {Ind}
+ K4=0.001
+ K5=0.01
+ L=1.2303E-06
+ Is=36.997279
+ a=0.66634207
+ L_Z0=0
+ L_EL=0
+ L_F0=0E6
+ PkZ=2435.5288
.ends XEL5030-122_sat

*======================================================================
* SPICE Model generated by Coilcraft
* Coilcraft Part Number : XEL5030-152
* Inductance = 1.5uH
*======================================================================
* Model Parameters:
*   Valid Frequency Range = 0.1MHz-90MHz
*   Ambient Temperature = 25 degC
*   Inductor Frequency Model
*   Use model for Frequency Domain simulations
*======================================================================
.subckt XEL5030-152_freq port1 port2 PARAMS: Cpar=8.94pF Ind=1.5uH
X1 port1 port2 Model1A PARAMS:
+ R1=11
+ R2=0.0099
+ C= {Cpar}
+ K1=0.000001
+ K2=0.544
+ K3= {Ind}
+ K4=0.001
+ K5=0.01
+ L=1.4034E-06
+ Is=37.0970571
+ a=0.65533725
+ L_Z0=0
+ L_EL=0
+ L_F0=0E6
+ PkZ=2903.95624
.ends XEL5030-152_freq

*======================================================================
* SPICE Model generated by Coilcraft
* Coilcraft Part Number : XEL5030-152
* Inductance = 1.5uH
*======================================================================
* Model Parameters:
*   Valid Frequency Range = 0.1MHz-90MHz
*   Ambient Temperature = 25 degC
*   Inductor Saturation Model
*   Use model for Time Domain simulations
*======================================================================
.subckt XEL5030-152_sat port1 port2 PARAMS: Cpar=8.86pF Ind=1.5uH
X1 port1 port2 Model1C PARAMS:
+ R1=11
+ R2=0.0099
+ C= {Cpar}
+ K1=0.000001
+ K2=0.544
+ K3= {Ind}
+ K4=0.001
+ K5=0.01
+ L=1.4034E-06
+ Is=37.0970571
+ a=0.65533725
+ L_Z0=0
+ L_EL=0
+ L_F0=0E6
+ PkZ=2903.95624
.ends XEL5030-152_sat

*======================================================================
* SPICE Model generated by Coilcraft
* Coilcraft Part Number : XEL5030-222
* Inductance = 2uH
*======================================================================
* Model Parameters:
*   Valid Frequency Range = 0.1MHz-85MHz
*   Ambient Temperature = 25 degC
*   Inductor Frequency Model
*   Use model for Frequency Domain simulations
*======================================================================
.subckt XEL5030-222_freq port1 port2 PARAMS: Cpar=8.44pF Ind=2uH
X1 port1 port2 Model1A PARAMS:
+ R1=5.5
+ R2=0.0132
+ C= {Cpar}
+ K1=0.000001
+ K2=0.64
+ K3= {Ind}
+ K4=0.001
+ K5=0.01
+ L=1.9775E-06
+ Is=23.6919941
+ a=0.71314049
+ L_Z0=0
+ L_EL=0
+ L_F0=0E6
+ PkZ=3649.31522
.ends XEL5030-222_freq

*======================================================================
* SPICE Model generated by Coilcraft
* Coilcraft Part Number : XEL5030-222
* Inductance = 2uH
*======================================================================
* Model Parameters:
*   Valid Frequency Range = 0.1MHz-85MHz
*   Ambient Temperature = 25 degC
*   Inductor Saturation Model
*   Use model for Time Domain simulations
*======================================================================
.subckt XEL5030-222_sat port1 port2 PARAMS: Cpar=8.39pF Ind=2uH
X1 port1 port2 Model1C PARAMS:
+ R1=5.5
+ R2=0.0132
+ C= {Cpar}
+ K1=0.000001
+ K2=0.64
+ K3= {Ind}
+ K4=0.001
+ K5=0.01
+ L=1.9775E-06
+ Is=23.6919941
+ a=0.71314049
+ L_Z0=0
+ L_EL=0
+ L_F0=0E6
+ PkZ=3649.31522
.ends XEL5030-222_sat

*======================================================================
* SPICE Model generated by Coilcraft
* Coilcraft Part Number : XEL5030-332
* Inductance = 3.3uH
*======================================================================
* Model Parameters:
*   Valid Frequency Range = 0.1MHz-80MHz
*   Ambient Temperature = 25 degC
*   Inductor Frequency Model
*   Use model for Frequency Domain simulations
*======================================================================
.subckt XEL5030-332_freq port1 port2 PARAMS: Cpar=8.45pF Ind=3.3uH
X1 port1 port2 Model1A PARAMS:
+ R1=4.38
+ R2=0.0212
+ C= {Cpar}
+ K1=0.000001
+ K2=1.21
+ K3= {Ind}
+ K4=0.001
+ K5=0.01
+ L=3.2194E-06
+ Is=19.7997315
+ a=0.69017078
+ L_Z0=0
+ L_EL=0
+ L_F0=0E6
+ PkZ=6185.59936
.ends XEL5030-332_freq

*======================================================================
* SPICE Model generated by Coilcraft
* Coilcraft Part Number : XEL5030-332
* Inductance = 3.3uH
*======================================================================
* Model Parameters:
*   Valid Frequency Range = 0.1MHz-80MHz
*   Ambient Temperature = 25 degC
*   Inductor Saturation Model
*   Use model for Time Domain simulations
*======================================================================
.subckt XEL5030-332_sat port1 port2 PARAMS: Cpar=8.42pF Ind=3.3uH
X1 port1 port2 Model1C PARAMS:
+ R1=4.38
+ R2=0.0212
+ C= {Cpar}
+ K1=0.000001
+ K2=1.21
+ K3= {Ind}
+ K4=0.001
+ K5=0.01
+ L=3.2194E-06
+ Is=19.7997315
+ a=0.69017078
+ L_Z0=0
+ L_EL=0
+ L_F0=0E6
+ PkZ=6185.59936
.ends XEL5030-332_sat

*======================================================================
* SPICE Model generated by Coilcraft
* Coilcraft Part Number : XEL5030-472
* Inductance = 4.7uH
*======================================================================
* Model Parameters:
*   Valid Frequency Range = 0.1MHz-75MHz
*   Ambient Temperature = 25 degC
*   Inductor Frequency Model
*   Use model for Frequency Domain simulations
*======================================================================
.subckt XEL5030-472_freq port1 port2 PARAMS: Cpar=9.85pF Ind=4.7uH
X1 port1 port2 Model1A PARAMS:
+ R1=2.94
+ R2=0.036
+ C= {Cpar}
+ K1=0.000001
+ K2=1.83
+ K3= {Ind}
+ K4=0.001
+ K5=0.01
+ L=4.6263E-06
+ Is=14.8662502
+ a=0.72139046
+ L_Z0=0
+ L_EL=0
+ L_F0=0E6
+ PkZ=8396.42355
.ends XEL5030-472_freq

*======================================================================
* SPICE Model generated by Coilcraft
* Coilcraft Part Number : XEL5030-472
* Inductance = 4.7uH
*======================================================================
* Model Parameters:
*   Valid Frequency Range = 0.1MHz-75MHz
*   Ambient Temperature = 25 degC
*   Inductor Saturation Model
*   Use model for Time Domain simulations
*======================================================================
.subckt XEL5030-472_sat port1 port2 PARAMS: Cpar=9.82pF Ind=4.7uH
X1 port1 port2 Model1C PARAMS:
+ R1=2.94
+ R2=0.036
+ C= {Cpar}
+ K1=0.000001
+ K2=1.83
+ K3= {Ind}
+ K4=0.001
+ K5=0.01
+ L=4.6263E-06
+ Is=14.8662502
+ a=0.72139046
+ L_Z0=0
+ L_EL=0
+ L_F0=0E6
+ PkZ=8396.42355
.ends XEL5030-472_sat

*======================================================================
* SPICE Model generated by Coilcraft
* Coilcraft Saturation Inductor Model
*======================================================================
* Model Parameters:
*   Valid Frequency Range Varies by Inductor
*   Ambient Temperature = 25 degC
*   Current Saturable Inductor Model
*======================================================================
.subckt Model1C Lin Lout PARAMS:
+ R1=1
+ R2=1
+ C=1
+ L=1
+ Is=1
+ a=1
+ PkZ=94.2 * {L} *1e6
R2 N001 Lin {R2}
R3 Lout N001 {PkZ}
C1 N002 N001 {C}
R1 Lout N002 {R1}
E1 N003 N001 N004 0 1
G1 0 N004 VALUE={{L*Is}*tanh((I(E1)/{Is})**{a})**{1/a}}
L1 N004 0 1
E2 N003 Lout N005 0 1
G2 0 N005 VALUE={{L*Is}*tanh((I(E2)/{Is})**{a})**{1/a}}
L2 N005 0 1
.ends Model1C
*======================================================================
* SPICE Model generated by Coilcraft
* Coilcraft Power Inductor Model
*======================================================================
* Model Parameters:
*   Valid Frequency Range Varies by Inductor
*   Ambient Temperature = 25 degC
*   DC Bias Current = 0 A
*   Frequency Dependent Inductor Model
*======================================================================
.subckt Model1A Lin Lout PARAMS:
+ R1=1
+ R2=1
+ C=1
+ K1=1
+ K2=1
+ K3=1
+ K4=1
+ K5=1
R2 N001 Lin {R2}
R1 Lout N002 {R1}
C1 N002 N001 {C}
G_Rvar2 N001 Lout LAPLACE { V(N001, Lout) } {1/K2/(-S*S/4/PI^2)^0.25}
G_Rvar1 N001 N003 LAPLACE { V(N001, N003) } {1/K1/(-S*S/4/PI^2)^0.25}
G_Lvar N003 Lout  LAPLACE { V(N003, Lout) } {1/(S*1e-6*({K3*1e6}-({K4}*LOG({K5}*(sqrt(-S*S)/(2*pi))))))}
*This large resistance to ground has been added to prevent a floating node error
R3 N003 0 100Meg
.ends Model1A


.subckt Coilcraft_Inductor Lin Lout
R1 Lout Lin 100Meg
.ends Coilcraft_Inductor
