*======================================================================
* SPICE Model generated by Coilcraft
* Coilcraft Part Number : XEL5050-141
* Inductance = 0.14uH
*======================================================================
* Model Parameters:
*   Valid Frequency Range = 0.1MHz-300MHz
*   Ambient Temperature = 25 degC
*   Inductor Frequency Model
*   Use model for Frequency Domain simulations
*======================================================================
.subckt XEL5050-141_freq port1 port2 PARAMS: Cpar=5.7pF Ind=0.14uH
X1 port1 port2 Model1A PARAMS:
+ R1=33.7
+ R2=0.00148
+ C= {Cpar}
+ K1=0.000001
+ K2=0.046
+ K3= {Ind}
+ K4=0.00058
+ K5=0.01
+ L=1.4102E-07
+ Is=89.4812005
+ a=0.73593282
+ L_Z0=0
+ L_EL=0
+ L_F0=0E6
+ PkZ=332.113534
.ends XEL5050-141_freq

*======================================================================
* SPICE Model generated by Coilcraft
* Coilcraft Part Number : XEL5050-141
* Inductance = 0.14uH
*======================================================================
* Model Parameters:
*   Valid Frequency Range = 0.1MHz-300MHz
*   Ambient Temperature = 25 degC
*   Inductor Saturation Model
*   Use model for Time Domain simulations
*======================================================================
.subckt XEL5050-141_sat port1 port2 PARAMS: Cpar=5.36pF Ind=0.14uH
X1 port1 port2 Model1C PARAMS:
+ R1=33.7
+ R2=0.00148
+ C= {Cpar}
+ K1=0.000001
+ K2=0.046
+ K3= {Ind}
+ K4=0.00058
+ K5=0.01
+ L=1.4102E-07
+ Is=89.4812005
+ a=0.73593282
+ L_Z0=0
+ L_EL=0
+ L_F0=0E6
+ PkZ=332.113534
.ends XEL5050-141_sat

*======================================================================
* SPICE Model generated by Coilcraft
* Coilcraft Part Number : XEL5050-281
* Inductance = 0.28uH
*======================================================================
* Model Parameters:
*   Valid Frequency Range = 0.1MHz-250MHz
*   Ambient Temperature = 25 degC
*   Inductor Frequency Model
*   Use model for Frequency Domain simulations
*======================================================================
.subckt XEL5050-281_freq port1 port2 PARAMS: Cpar=6.3pF Ind=0.28uH
X1 port1 port2 Model1A PARAMS:
+ R1=27.9
+ R2=0.0022
+ C= {Cpar}
+ K1=0.000001
+ K2=0.0808
+ K3= {Ind}
+ K4=0.00058
+ K5=0.01
+ L=2.8125E-07
+ Is=62.0190286
+ a=0.76554363
+ L_Z0=0
+ L_EL=0
+ L_F0=0E6
+ PkZ=568.290609
.ends XEL5050-281_freq

*======================================================================
* SPICE Model generated by Coilcraft
* Coilcraft Part Number : XEL5050-281
* Inductance = 0.28uH
*======================================================================
* Model Parameters:
*   Valid Frequency Range = 0.1MHz-250MHz
*   Ambient Temperature = 25 degC
*   Inductor Saturation Model
*   Use model for Time Domain simulations
*======================================================================
.subckt XEL5050-281_sat port1 port2 PARAMS: Cpar=6.12pF Ind=0.28uH
X1 port1 port2 Model1C PARAMS:
+ R1=27.9
+ R2=0.0022
+ C= {Cpar}
+ K1=0.000001
+ K2=0.0808
+ K3= {Ind}
+ K4=0.00058
+ K5=0.01
+ L=2.8125E-07
+ Is=62.0190286
+ a=0.76554363
+ L_Z0=0
+ L_EL=0
+ L_F0=0E6
+ PkZ=568.290609
.ends XEL5050-281_sat

*======================================================================
* SPICE Model generated by Coilcraft
* Coilcraft Part Number : XEL5050-471
* Inductance = 0.47uH
*======================================================================
* Model Parameters:
*   Valid Frequency Range = 0.1MHz-150MHz
*   Ambient Temperature = 25 degC
*   Inductor Frequency Model
*   Use model for Frequency Domain simulations
*======================================================================
.subckt XEL5050-471_freq port1 port2 PARAMS: Cpar=9.2pF Ind=0.47uH
X1 port1 port2 Model1A PARAMS:
+ R1=7.3
+ R2=0.003
+ C= {Cpar}
+ K1=0.000001
+ K2=0.126
+ K3= {Ind}
+ K4=0.00058
+ K5=0.01
+ L=4.8248E-07
+ Is=44.8772418
+ a=0.78007195
+ L_Z0=0
+ L_EL=0
+ L_F0=0E6
+ PkZ=953.552069
.ends XEL5050-471_freq

*======================================================================
* SPICE Model generated by Coilcraft
* Coilcraft Part Number : XEL5050-471
* Inductance = 0.47uH
*======================================================================
* Model Parameters:
*   Valid Frequency Range = 0.1MHz-150MHz
*   Ambient Temperature = 25 degC
*   Inductor Saturation Model
*   Use model for Time Domain simulations
*======================================================================
.subckt XEL5050-471_sat port1 port2 PARAMS: Cpar=9.05pF Ind=0.47uH
X1 port1 port2 Model1C PARAMS:
+ R1=7.3
+ R2=0.003
+ C= {Cpar}
+ K1=0.000001
+ K2=0.126
+ K3= {Ind}
+ K4=0.00058
+ K5=0.01
+ L=4.8248E-07
+ Is=44.8772418
+ a=0.78007195
+ L_Z0=0
+ L_EL=0
+ L_F0=0E6
+ PkZ=953.552069
.ends XEL5050-471_sat

*======================================================================
* SPICE Model generated by Coilcraft
* Coilcraft Part Number : XEL5050-681
* Inductance = 0.68uH
*======================================================================
* Model Parameters:
*   Valid Frequency Range = 0.1MHz-140MHz
*   Ambient Temperature = 25 degC
*   Inductor Frequency Model
*   Use model for Frequency Domain simulations
*======================================================================
.subckt XEL5050-681_freq port1 port2 PARAMS: Cpar=6.7pF Ind=0.68uH
X1 port1 port2 Model1A PARAMS:
+ R1=6.7
+ R2=0.00379
+ C= {Cpar}
+ K1=0.000001
+ K2=0.187
+ K3= {Ind}
+ K4=0.00058
+ K5=0.01
+ L=6.8546E-07
+ Is=38.0782493
+ a=0.78791348
+ L_Z0=0
+ L_EL=0
+ L_F0=0E6
+ PkZ=1461.26624
.ends XEL5050-681_freq

*======================================================================
* SPICE Model generated by Coilcraft
* Coilcraft Part Number : XEL5050-681
* Inductance = 0.68uH
*======================================================================
* Model Parameters:
*   Valid Frequency Range = 0.1MHz-140MHz
*   Ambient Temperature = 25 degC
*   Inductor Saturation Model
*   Use model for Time Domain simulations
*======================================================================
.subckt XEL5050-681_sat port1 port2 PARAMS: Cpar=6.62pF Ind=0.68uH
X1 port1 port2 Model1C PARAMS:
+ R1=6.7
+ R2=0.00379
+ C= {Cpar}
+ K1=0.000001
+ K2=0.187
+ K3= {Ind}
+ K4=0.00058
+ K5=0.01
+ L=6.8546E-07
+ Is=38.0782493
+ a=0.78791348
+ L_Z0=0
+ L_EL=0
+ L_F0=0E6
+ PkZ=1461.26624
.ends XEL5050-681_sat

*======================================================================
* SPICE Model generated by Coilcraft
* Coilcraft Part Number : XEL5050-901
* Inductance = 0.9uH
*======================================================================
* Model Parameters:
*   Valid Frequency Range = 0.1MHz-130MHz
*   Ambient Temperature = 25 degC
*   Inductor Frequency Model
*   Use model for Frequency Domain simulations
*======================================================================
.subckt XEL5050-901_freq port1 port2 PARAMS: Cpar=8.3pF Ind=0.9uH
X1 port1 port2 Model1A PARAMS:
+ R1=6.7
+ R2=0.00467
+ C= {Cpar}
+ K1=0.000001
+ K2=0.253
+ K3= {Ind}
+ K4=0.00058
+ K5=0.01
+ L=8.9664E-07
+ Is=35.7566763
+ a=0.79625255
+ L_Z0=0
+ L_EL=0
+ L_F0=0E6
+ PkZ=1726.46075
.ends XEL5050-901_freq

*======================================================================
* SPICE Model generated by Coilcraft
* Coilcraft Part Number : XEL5050-901
* Inductance = 0.9uH
*======================================================================
* Model Parameters:
*   Valid Frequency Range = 0.1MHz-130MHz
*   Ambient Temperature = 25 degC
*   Inductor Saturation Model
*   Use model for Time Domain simulations
*======================================================================
.subckt XEL5050-901_sat port1 port2 PARAMS: Cpar=8.23pF Ind=0.9uH
X1 port1 port2 Model1C PARAMS:
+ R1=6.7
+ R2=0.00467
+ C= {Cpar}
+ K1=0.000001
+ K2=0.253
+ K3= {Ind}
+ K4=0.00058
+ K5=0.01
+ L=8.9664E-07
+ Is=35.7566763
+ a=0.79625255
+ L_Z0=0
+ L_EL=0
+ L_F0=0E6
+ PkZ=1726.46075
.ends XEL5050-901_sat

*======================================================================
* SPICE Model generated by Coilcraft
* Coilcraft Part Number : XEL5050-122
* Inductance = 1.2uH
*======================================================================
* Model Parameters:
*   Valid Frequency Range = 0.1MHz-100MHz
*   Ambient Temperature = 25 degC
*   Inductor Frequency Model
*   Use model for Frequency Domain simulations
*======================================================================
.subckt XEL5050-122_freq port1 port2 PARAMS: Cpar=8.3pF Ind=1.2uH
X1 port1 port2 Model1A PARAMS:
+ R1=7.3
+ R2=0.0054
+ C= {Cpar}
+ K1=0.000001
+ K2=0.337
+ K3= {Ind}
+ K4=0.00058
+ K5=0.01
+ L=1.1371E-06
+ Is=31.0917614
+ a=0.80926877
+ L_Z0=0
+ L_EL=0
+ L_F0=0E6
+ PkZ=2136.59509
.ends XEL5050-122_freq

*======================================================================
* SPICE Model generated by Coilcraft
* Coilcraft Part Number : XEL5050-122
* Inductance = 1.2uH
*======================================================================
* Model Parameters:
*   Valid Frequency Range = 0.1MHz-100MHz
*   Ambient Temperature = 25 degC
*   Inductor Saturation Model
*   Use model for Time Domain simulations
*======================================================================
.subckt XEL5050-122_sat port1 port2 PARAMS: Cpar=8.25pF Ind=1.2uH
X1 port1 port2 Model1C PARAMS:
+ R1=7.3
+ R2=0.0054
+ C= {Cpar}
+ K1=0.000001
+ K2=0.337
+ K3= {Ind}
+ K4=0.00058
+ K5=0.01
+ L=1.1371E-06
+ Is=31.0917614
+ a=0.80926877
+ L_Z0=0
+ L_EL=0
+ L_F0=0E6
+ PkZ=2136.59509
.ends XEL5050-122_sat

*======================================================================
* SPICE Model generated by Coilcraft
* Coilcraft Part Number : XEL5050-182
* Inductance = 1.8uH
*======================================================================
* Model Parameters:
*   Valid Frequency Range = 0.1MHz-90MHz
*   Ambient Temperature = 25 degC
*   Inductor Frequency Model
*   Use model for Frequency Domain simulations
*======================================================================
.subckt XEL5050-182_freq port1 port2 PARAMS: Cpar=8.7pF Ind=1.8uH
X1 port1 port2 Model1A PARAMS:
+ R1=3.65
+ R2=0.00778
+ C= {Cpar}
+ K1=0.000001
+ K2=0.557
+ K3= {Ind}
+ K4=0.00058
+ K5=0.01
+ L=1.7014E-06
+ Is=26.7283488
+ a=0.79462357
+ L_Z0=0
+ L_EL=0
+ L_F0=0E6
+ PkZ=3327.28996
.ends XEL5050-182_freq

*======================================================================
* SPICE Model generated by Coilcraft
* Coilcraft Part Number : XEL5050-182
* Inductance = 1.8uH
*======================================================================
* Model Parameters:
*   Valid Frequency Range = 0.1MHz-90MHz
*   Ambient Temperature = 25 degC
*   Inductor Saturation Model
*   Use model for Time Domain simulations
*======================================================================
.subckt XEL5050-182_sat port1 port2 PARAMS: Cpar=8.66pF Ind=1.8uH
X1 port1 port2 Model1C PARAMS:
+ R1=3.65
+ R2=0.00778
+ C= {Cpar}
+ K1=0.000001
+ K2=0.557
+ K3= {Ind}
+ K4=0.00058
+ K5=0.01
+ L=1.7014E-06
+ Is=26.7283488
+ a=0.79462357
+ L_Z0=0
+ L_EL=0
+ L_F0=0E6
+ PkZ=3327.28996
.ends XEL5050-182_sat

*======================================================================
* SPICE Model generated by Coilcraft
* Coilcraft Part Number : XEL5050-222
* Inductance = 2.2uH
*======================================================================
* Model Parameters:
*   Valid Frequency Range = 0.1MHz-80MHz
*   Ambient Temperature = 25 degC
*   Inductor Frequency Model
*   Use model for Frequency Domain simulations
*======================================================================
.subckt XEL5050-222_freq port1 port2 PARAMS: Cpar=8.3pF Ind=2.2uH
X1 port1 port2 Model1A PARAMS:
+ R1=3.15
+ R2=0.01036
+ C= {Cpar}
+ K1=0.000001
+ K2=0.701
+ K3= {Ind}
+ K4=0.00058
+ K5=0.01
+ L=2.2641E-06
+ Is=20.0286247
+ a=0.79110041
+ L_Z0=0
+ L_EL=0
+ L_F0=0E6
+ PkZ=4073.38325
.ends XEL5050-222_freq

*======================================================================
* SPICE Model generated by Coilcraft
* Coilcraft Part Number : XEL5050-222
* Inductance = 2.2uH
*======================================================================
* Model Parameters:
*   Valid Frequency Range = 0.1MHz-80MHz
*   Ambient Temperature = 25 degC
*   Inductor Saturation Model
*   Use model for Time Domain simulations
*======================================================================
.subckt XEL5050-222_sat port1 port2 PARAMS: Cpar=8.27pF Ind=2.2uH
X1 port1 port2 Model1C PARAMS:
+ R1=3.15
+ R2=0.01036
+ C= {Cpar}
+ K1=0.000001
+ K2=0.701
+ K3= {Ind}
+ K4=0.00058
+ K5=0.01
+ L=2.2641E-06
+ Is=20.0286247
+ a=0.79110041
+ L_Z0=0
+ L_EL=0
+ L_F0=0E6
+ PkZ=4073.38325
.ends XEL5050-222_sat

*======================================================================
* SPICE Model generated by Coilcraft
* Coilcraft Part Number : XEL5050-332
* Inductance = 3.3uH
*======================================================================
* Model Parameters:
*   Valid Frequency Range = 0.1MHz-70MHz
*   Ambient Temperature = 25 degC
*   Inductor Frequency Model
*   Use model for Frequency Domain simulations
*======================================================================
.subckt XEL5050-332_freq port1 port2 PARAMS: Cpar=9.1pF Ind=3.3uH
X1 port1 port2 Model1A PARAMS:
+ R1=2.55
+ R2=0.0133
+ C= {Cpar}
+ K1=0.000001
+ K2=1.08
+ K3= {Ind}
+ K4=0.00058
+ K5=0.01
+ L=3.2726E-06
+ Is=17.91332
+ a=0.79220126
+ L_Z0=0
+ L_EL=0
+ L_F0=0E6
+ PkZ=5593.48842
.ends XEL5050-332_freq

*======================================================================
* SPICE Model generated by Coilcraft
* Coilcraft Part Number : XEL5050-332
* Inductance = 3.3uH
*======================================================================
* Model Parameters:
*   Valid Frequency Range = 0.1MHz-70MHz
*   Ambient Temperature = 25 degC
*   Inductor Saturation Model
*   Use model for Time Domain simulations
*======================================================================
.subckt XEL5050-332_sat port1 port2 PARAMS: Cpar=9.08pF Ind=3.3uH
X1 port1 port2 Model1C PARAMS:
+ R1=2.55
+ R2=0.0133
+ C= {Cpar}
+ K1=0.000001
+ K2=1.08
+ K3= {Ind}
+ K4=0.00058
+ K5=0.01
+ L=3.2726E-06
+ Is=17.91332
+ a=0.79220126
+ L_Z0=0
+ L_EL=0
+ L_F0=0E6
+ PkZ=5593.48842
.ends XEL5050-332_sat

*======================================================================
* SPICE Model generated by Coilcraft
* Coilcraft Part Number : XEL5050-472
* Inductance = 4.7uH
*======================================================================
* Model Parameters:
*   Valid Frequency Range = 0.1MHz-60MHz
*   Ambient Temperature = 25 degC
*   Inductor Frequency Model
*   Use model for Frequency Domain simulations
*======================================================================
.subckt XEL5050-472_freq port1 port2 PARAMS: Cpar=8.1pF Ind=4.7uH
X1 port1 port2 Model1A PARAMS:
+ R1=2.55
+ R2=0.0196
+ C= {Cpar}
+ K1=0.000001
+ K2=1.61
+ K3= {Ind}
+ K4=0.00058
+ K5=0.01
+ L=4.7623E-06
+ Is=15.8088119
+ a=0.77923754
+ L_Z0=0
+ L_EL=0
+ L_F0=0E6
+ PkZ=7895.26964
.ends XEL5050-472_freq

*======================================================================
* SPICE Model generated by Coilcraft
* Coilcraft Part Number : XEL5050-472
* Inductance = 4.7uH
*======================================================================
* Model Parameters:
*   Valid Frequency Range = 0.1MHz-60MHz
*   Ambient Temperature = 25 degC
*   Inductor Saturation Model
*   Use model for Time Domain simulations
*======================================================================
.subckt XEL5050-472_sat port1 port2 PARAMS: Cpar=8.09pF Ind=4.7uH
X1 port1 port2 Model1C PARAMS:
+ R1=2.55
+ R2=0.0196
+ C= {Cpar}
+ K1=0.000001
+ K2=1.61
+ K3= {Ind}
+ K4=0.00058
+ K5=0.01
+ L=4.7623E-06
+ Is=15.8088119
+ a=0.77923754
+ L_Z0=0
+ L_EL=0
+ L_F0=0E6
+ PkZ=7895.26964
.ends XEL5050-472_sat

*======================================================================
* SPICE Model generated by Coilcraft
* Coilcraft Part Number : XEL5050-562
* Inductance = 5.6uH
*======================================================================
* Model Parameters:
*   Valid Frequency Range = 0.1MHz-50MHz
*   Ambient Temperature = 25 degC
*   Inductor Frequency Model
*   Use model for Frequency Domain simulations
*======================================================================
.subckt XEL5050-562_freq port1 port2 PARAMS: Cpar=8.1pF Ind=5.6uH
X1 port1 port2 Model1A PARAMS:
+ R1=2.55
+ R2=0.0226
+ C= {Cpar}
+ K1=0.000001
+ K2=2.13
+ K3= {Ind}
+ K4=0.00058
+ K5=0.01
+ L=5.4183E-06
+ Is=14.3545796
+ a=0.78101303
+ L_Z0=0
+ L_EL=0
+ L_F0=0E6
+ PkZ=9975.35719
.ends XEL5050-562_freq

*======================================================================
* SPICE Model generated by Coilcraft
* Coilcraft Part Number : XEL5050-562
* Inductance = 5.6uH
*======================================================================
* Model Parameters:
*   Valid Frequency Range = 0.1MHz-50MHz
*   Ambient Temperature = 25 degC
*   Inductor Saturation Model
*   Use model for Time Domain simulations
*======================================================================
.subckt XEL5050-562_sat port1 port2 PARAMS: Cpar=8.09pF Ind=5.6uH
X1 port1 port2 Model1C PARAMS:
+ R1=2.55
+ R2=0.0226
+ C= {Cpar}
+ K1=0.000001
+ K2=2.13
+ K3= {Ind}
+ K4=0.00058
+ K5=0.01
+ L=5.4183E-06
+ Is=14.3545796
+ a=0.78101303
+ L_Z0=0
+ L_EL=0
+ L_F0=0E6
+ PkZ=9975.35719
.ends XEL5050-562_sat

*======================================================================
* SPICE Model generated by Coilcraft
* Coilcraft Part Number : XEL5050-682
* Inductance = 6.8uH
*======================================================================
* Model Parameters:
*   Valid Frequency Range = 0.1MHz-40MHz
*   Ambient Temperature = 25 degC
*   Inductor Frequency Model
*   Use model for Frequency Domain simulations
*======================================================================
.subckt XEL5050-682_freq port1 port2 PARAMS: Cpar=8.2pF Ind=6.8uH
X1 port1 port2 Model1A PARAMS:
+ R1=2.55
+ R2=0.02675
+ C= {Cpar}
+ K1=0.000001
+ K2=2.58
+ K3= {Ind}
+ K4=0.00058
+ K5=0.01
+ L=5.9619E-06
+ Is=12.7393631
+ a=0.7837926
+ L_Z0=0
+ L_EL=0
+ L_F0=0E6
+ PkZ=11491.9496
.ends XEL5050-682_freq

*======================================================================
* SPICE Model generated by Coilcraft
* Coilcraft Part Number : XEL5050-682
* Inductance = 6.8uH
*======================================================================
* Model Parameters:
*   Valid Frequency Range = 0.1MHz-40MHz
*   Ambient Temperature = 25 degC
*   Inductor Saturation Model
*   Use model for Time Domain simulations
*======================================================================
.subckt XEL5050-682_sat port1 port2 PARAMS: Cpar=8.19pF Ind=6.8uH
X1 port1 port2 Model1C PARAMS:
+ R1=2.55
+ R2=0.02675
+ C= {Cpar}
+ K1=0.000001
+ K2=2.58
+ K3= {Ind}
+ K4=0.00058
+ K5=0.01
+ L=5.9619E-06
+ Is=12.7393631
+ a=0.7837926
+ L_Z0=0
+ L_EL=0
+ L_F0=0E6
+ PkZ=11491.9496
.ends XEL5050-682_sat

*======================================================================
* SPICE Model generated by Coilcraft
* Coilcraft Part Number : XEL5050-822
* Inductance = 8.2uH
*======================================================================
* Model Parameters:
*   Valid Frequency Range = 0.1MHz-36MHz
*   Ambient Temperature = 25 degC
*   Inductor Frequency Model
*   Use model for Frequency Domain simulations
*======================================================================
.subckt XEL5050-822_freq port1 port2 PARAMS: Cpar=7.8pF Ind=8.2uH
X1 port1 port2 Model1A PARAMS:
+ R1=2.55
+ R2=0.0318
+ C= {Cpar}
+ K1=0.000001
+ K2=2.76
+ K3= {Ind}
+ K4=0.00058
+ K5=0.01
+ L=7.6801E-06
+ Is=11.5927655
+ a=0.79485238
+ L_Z0=0
+ L_EL=0
+ L_F0=0E6
+ PkZ=11956.9671
.ends XEL5050-822_freq

*======================================================================
* SPICE Model generated by Coilcraft
* Coilcraft Part Number : XEL5050-822
* Inductance = 8.2uH
*======================================================================
* Model Parameters:
*   Valid Frequency Range = 0.1MHz-36MHz
*   Ambient Temperature = 25 degC
*   Inductor Saturation Model
*   Use model for Time Domain simulations
*======================================================================
.subckt XEL5050-822_sat port1 port2 PARAMS: Cpar=7.79pF Ind=8.2uH
X1 port1 port2 Model1C PARAMS:
+ R1=2.55
+ R2=0.0318
+ C= {Cpar}
+ K1=0.000001
+ K2=2.76
+ K3= {Ind}
+ K4=0.00058
+ K5=0.01
+ L=7.6801E-06
+ Is=11.5927655
+ a=0.79485238
+ L_Z0=0
+ L_EL=0
+ L_F0=0E6
+ PkZ=11956.9671
.ends XEL5050-822_sat

*======================================================================
* SPICE Model generated by Coilcraft
* Coilcraft Part Number : XEL5050-103
* Inductance = 10uH
*======================================================================
* Model Parameters:
*   Valid Frequency Range = 0.1MHz-30MHz
*   Ambient Temperature = 25 degC
*   Inductor Frequency Model
*   Use model for Frequency Domain simulations
*======================================================================
.subckt XEL5050-103_freq port1 port2 PARAMS: Cpar=8.2pF Ind=10uH
X1 port1 port2 Model1A PARAMS:
+ R1=2.55
+ R2=0.0409
+ C= {Cpar}
+ K1=0.000001
+ K2=2.72
+ K3= {Ind}
+ K4=0.00058
+ K5=0.01
+ L=9.7089E-06
+ Is=10.4567439
+ a=0.78515522
+ L_Z0=0
+ L_EL=0
+ L_F0=0E6
+ PkZ=11138.9416
.ends XEL5050-103_freq

*======================================================================
* SPICE Model generated by Coilcraft
* Coilcraft Part Number : XEL5050-103
* Inductance = 10uH
*======================================================================
* Model Parameters:
*   Valid Frequency Range = 0.1MHz-30MHz
*   Ambient Temperature = 25 degC
*   Inductor Saturation Model
*   Use model for Time Domain simulations
*======================================================================
.subckt XEL5050-103_sat port1 port2 PARAMS: Cpar=8.19pF Ind=10uH
X1 port1 port2 Model1C PARAMS:
+ R1=2.55
+ R2=0.0409
+ C= {Cpar}
+ K1=0.000001
+ K2=2.72
+ K3= {Ind}
+ K4=0.00058
+ K5=0.01
+ L=9.7089E-06
+ Is=10.4567439
+ a=0.78515522
+ L_Z0=0
+ L_EL=0
+ L_F0=0E6
+ PkZ=11138.9416
.ends XEL5050-103_sat

*======================================================================
* SPICE Model generated by Coilcraft
* Coilcraft Part Number : XEL5050-153
* Inductance = 15uH
*======================================================================
* Model Parameters:
*   Valid Frequency Range = 0.1MHz-30MHz
*   Ambient Temperature = 25 degC
*   Inductor Frequency Model
*   Use model for Frequency Domain simulations
*======================================================================
.subckt XEL5050-153_freq port1 port2 PARAMS: Cpar=7.8pF Ind=15uH
X1 port1 port2 Model1A PARAMS:
+ R1=5.1
+ R2=0.0697
+ C= {Cpar}
+ K1=0.000001
+ K2=5.84
+ K3= {Ind}
+ K4=0.00058
+ K5=0.01
+ L=1.3943E-05
+ Is=8.36291224
+ a=0.77805101
+ L_Z0=0
+ L_EL=0
+ L_F0=0E6
+ PkZ=21146.1979
.ends XEL5050-153_freq

*======================================================================
* SPICE Model generated by Coilcraft
* Coilcraft Part Number : XEL5050-153
* Inductance = 15uH
*======================================================================
* Model Parameters:
*   Valid Frequency Range = 0.1MHz-30MHz
*   Ambient Temperature = 25 degC
*   Inductor Saturation Model
*   Use model for Time Domain simulations
*======================================================================
.subckt XEL5050-153_sat port1 port2 PARAMS: Cpar=7.80pF Ind=15uH
X1 port1 port2 Model1C PARAMS:
+ R1=5.1
+ R2=0.0697
+ C= {Cpar}
+ K1=0.000001
+ K2=5.84
+ K3= {Ind}
+ K4=0.00058
+ K5=0.01
+ L=1.3943E-05
+ Is=8.36291224
+ a=0.77805101
+ L_Z0=0
+ L_EL=0
+ L_F0=0E6
+ PkZ=21146.1979
.ends XEL5050-153_sat

*======================================================================
* SPICE Model generated by Coilcraft
* Coilcraft Part Number : XEL5050-223
* Inductance = 22uH
*======================================================================
* Model Parameters:
*   Valid Frequency Range = 0.1MHz-25MHz
*   Ambient Temperature = 25 degC
*   Inductor Frequency Model
*   Use model for Frequency Domain simulations
*======================================================================
.subckt XEL5050-223_freq port1 port2 PARAMS: Cpar=8pF Ind=22uH
X1 port1 port2 Model1A PARAMS:
+ R1=3.56
+ R2=0.0906
+ C= {Cpar}
+ K1=0.000001
+ K2=6
+ K3= {Ind}
+ K4=0.00058
+ K5=0.01
+ L=1.9155E-05
+ Is=7.96841068
+ a=0.76863063
+ L_Z0=0
+ L_EL=0
+ L_F0=0E6
+ PkZ=20238.2869
.ends XEL5050-223_freq

*======================================================================
* SPICE Model generated by Coilcraft
* Coilcraft Part Number : XEL5050-223
* Inductance = 22uH
*======================================================================
* Model Parameters:
*   Valid Frequency Range = 0.1MHz-25MHz
*   Ambient Temperature = 25 degC
*   Inductor Saturation Model
*   Use model for Time Domain simulations
*======================================================================
.subckt XEL5050-223_sat port1 port2 PARAMS: Cpar=8.00pF Ind=22uH
X1 port1 port2 Model1C PARAMS:
+ R1=3.56
+ R2=0.0906
+ C= {Cpar}
+ K1=0.000001
+ K2=6
+ K3= {Ind}
+ K4=0.00058
+ K5=0.01
+ L=1.9155E-05
+ Is=7.96841068
+ a=0.76863063
+ L_Z0=0
+ L_EL=0
+ L_F0=0E6
+ PkZ=20238.2869
.ends XEL5050-223_sat

*======================================================================
* SPICE Model generated by Coilcraft
* Coilcraft Saturation Inductor Model
*======================================================================
* Model Parameters:
*   Valid Frequency Range Varies by Inductor
*   Ambient Temperature = 25 degC
*   Current Saturable Inductor Model
*======================================================================
.subckt Model1C Lin Lout PARAMS:
+ R1=1
+ R2=1
+ C=1
+ L=1
+ Is=1
+ a=1
+ PkZ=94.2 * {L} *1e6
R2 N001 Lin {R2}
R3 Lout N001 {PkZ}
C1 N002 N001 {C}
R1 Lout N002 {R1}
E1 N003 N001 N004 0 1
G1 0 N004 VALUE={{L*Is}*tanh((I(E1)/{Is})**{a})**{1/a}}
L1 N004 0 1
E2 N003 Lout N005 0 1
G2 0 N005 VALUE={{L*Is}*tanh((I(E2)/{Is})**{a})**{1/a}}
L2 N005 0 1
.ends Model1C
*======================================================================
* SPICE Model generated by Coilcraft
* Coilcraft Power Inductor Model
*======================================================================
* Model Parameters:
*   Valid Frequency Range Varies by Inductor
*   Ambient Temperature = 25 degC
*   DC Bias Current = 0 A
*   Frequency Dependent Inductor Model
*======================================================================
.subckt Model1A Lin Lout PARAMS:
+ R1=1
+ R2=1
+ C=1
+ K1=1
+ K2=1
+ K3=1
+ K4=1
+ K5=1
R2 N001 Lin {R2}
R1 Lout N002 {R1}
C1 N002 N001 {C}
G_Rvar2 N001 Lout LAPLACE { V(N001, Lout) } {1/K2/(-S*S/4/PI^2)^0.25}
G_Rvar1 N001 N003 LAPLACE { V(N001, N003) } {1/K1/(-S*S/4/PI^2)^0.25}
G_Lvar N003 Lout  LAPLACE { V(N003, Lout) } {1/(S*1e-6*({K3*1e6}-({K4}*LOG({K5}*(sqrt(-S*S)/(2*pi))))))}
*This large resistance to ground has been added to prevent a floating node error
R3 N003 0 100Meg
.ends Model1A


.subckt Coilcraft_Inductor Lin Lout
R1 Lout Lin 100Meg
.ends Coilcraft_Inductor
