*======================================================================
* SPICE Model generated by Coilcraft
* Coilcraft Part Number : XEL5020-101
* Inductance = 0.11uH
*======================================================================
* Model Parameters:
*   Valid Frequency Range = 0.1MHz-500MHz
*   Ambient Temperature = 25 degC
*   Inductor Frequency Model
*   Use model for Frequency Domain simulations
*======================================================================
.subckt XEL5020-101_freq port1 port2 PARAMS: Cpar=5.2pF Ind=0.11uH
X1 port1 port2 Model1A PARAMS:
+ R1=0.01
+ R2=0.0019
+ C= {Cpar}
+ K1=0.00001
+ K2=0.021
+ K3= {Ind}
+ K4=0.001
+ K5=0.01
+ L=1.162E-07
+ Is=93.159091
+ a=0.71972969
+ L_Z0=0
+ L_EL=0
+ L_F0=0E6
+ PkZ=314.774862
.ends XEL5020-101_freq

*======================================================================
* SPICE Model generated by Coilcraft
* Coilcraft Part Number : XEL5020-101
* Inductance = 0.11uH
*======================================================================
* Model Parameters:
*   Valid Frequency Range = 0.1MHz-500MHz
*   Ambient Temperature = 25 degC
*   Inductor Saturation Model
*   Use model for Time Domain simulations
*======================================================================
.subckt XEL5020-101_sat port1 port2 PARAMS: Cpar=4.51pF Ind=0.11uH
X1 port1 port2 Model1C PARAMS:
+ R1=0.01
+ R2=0.0019
+ C= {Cpar}
+ K1=0.00001
+ K2=0.021
+ K3= {Ind}
+ K4=0.001
+ K5=0.01
+ L=1.162E-07
+ Is=93.159091
+ a=0.71972969
+ L_Z0=0
+ L_EL=0
+ L_F0=0E6
+ PkZ=314.774862
.ends XEL5020-101_sat

*======================================================================
* SPICE Model generated by Coilcraft
* Coilcraft Part Number : XEL5020-221
* Inductance = 0.23uH
*======================================================================
* Model Parameters:
*   Valid Frequency Range = 0.1MHz-500MHz
*   Ambient Temperature = 25 degC
*   Inductor Frequency Model
*   Use model for Frequency Domain simulations
*======================================================================
.subckt XEL5020-221_freq port1 port2 PARAMS: Cpar=6.9pF Ind=0.23uH
X1 port1 port2 Model1A PARAMS:
+ R1=0.01
+ R2=0.0035
+ C= {Cpar}
+ K1=0.00001
+ K2=0.05
+ K3= {Ind}
+ K4=0.001
+ K5=0.01
+ L=2.3524E-07
+ Is=67.4254522
+ a=0.6779107
+ L_Z0=0
+ L_EL=0
+ L_F0=0E6
+ PkZ=569.637754
.ends XEL5020-221_freq

*======================================================================
* SPICE Model generated by Coilcraft
* Coilcraft Part Number : XEL5020-221
* Inductance = 0.23uH
*======================================================================
* Model Parameters:
*   Valid Frequency Range = 0.1MHz-500MHz
*   Ambient Temperature = 25 degC
*   Inductor Saturation Model
*   Use model for Time Domain simulations
*======================================================================
.subckt XEL5020-221_sat port1 port2 PARAMS: Cpar=6.48pF Ind=0.23uH
X1 port1 port2 Model1C PARAMS:
+ R1=0.01
+ R2=0.0035
+ C= {Cpar}
+ K1=0.00001
+ K2=0.05
+ K3= {Ind}
+ K4=0.001
+ K5=0.01
+ L=2.3524E-07
+ Is=67.4254522
+ a=0.6779107
+ L_Z0=0
+ L_EL=0
+ L_F0=0E6
+ PkZ=569.637754
.ends XEL5020-221_sat

*======================================================================
* SPICE Model generated by Coilcraft
* Coilcraft Part Number : XEL5020-381
* Inductance = 0.382uH
*======================================================================
* Model Parameters:
*   Valid Frequency Range = 0.1MHz-500MHz
*   Ambient Temperature = 25 degC
*   Inductor Frequency Model
*   Use model for Frequency Domain simulations
*======================================================================
.subckt XEL5020-381_freq port1 port2 PARAMS: Cpar=6.5pF Ind=0.382uH
X1 port1 port2 Model1A PARAMS:
+ R1=0.01
+ R2=0.0048
+ C= {Cpar}
+ K1=0.00001
+ K2=0.086
+ K3= {Ind}
+ K4=0.0001
+ K5=0.01
+ L=3.8232E-07
+ Is=65.3666291
+ a=0.58641721
+ L_Z0=0
+ L_EL=0
+ L_F0=0E6
+ PkZ=863.677168
.ends XEL5020-381_freq

*======================================================================
* SPICE Model generated by Coilcraft
* Coilcraft Part Number : XEL5020-381
* Inductance = 0.382uH
*======================================================================
* Model Parameters:
*   Valid Frequency Range = 0.1MHz-500MHz
*   Ambient Temperature = 25 degC
*   Inductor Saturation Model
*   Use model for Time Domain simulations
*======================================================================
.subckt XEL5020-381_sat port1 port2 PARAMS: Cpar=6.48pF Ind=0.382uH
X1 port1 port2 Model1C PARAMS:
+ R1=0.01
+ R2=0.0048
+ C= {Cpar}
+ K1=0.00001
+ K2=0.086
+ K3= {Ind}
+ K4=0.0001
+ K5=0.01
+ L=3.8232E-07
+ Is=65.3666291
+ a=0.58641721
+ L_Z0=0
+ L_EL=0
+ L_F0=0E6
+ PkZ=863.677168
.ends XEL5020-381_sat

*======================================================================
* SPICE Model generated by Coilcraft
* Coilcraft Part Number : XEL5020-681
* Inductance = 0.682uH
*======================================================================
* Model Parameters:
*   Valid Frequency Range = 0.1MHz-400MHz
*   Ambient Temperature = 25 degC
*   Inductor Frequency Model
*   Use model for Frequency Domain simulations
*======================================================================
.subckt XEL5020-681_freq port1 port2 PARAMS: Cpar=6.8pF Ind=0.682uH
X1 port1 port2 Model1A PARAMS:
+ R1=0.01
+ R2=0.0089
+ C= {Cpar}
+ K1=0.00001
+ K2=0.154
+ K3= {Ind}
+ K4=0.0001
+ K5=0.01
+ L=6.8381E-07
+ Is=40.048277
+ a=0.67001786
+ L_Z0=0
+ L_EL=0
+ L_F0=0E6
+ PkZ=1322.89173
.ends XEL5020-681_freq

*======================================================================
* SPICE Model generated by Coilcraft
* Coilcraft Part Number : XEL5020-681
* Inductance = 0.682uH
*======================================================================
* Model Parameters:
*   Valid Frequency Range = 0.1MHz-400MHz
*   Ambient Temperature = 25 degC
*   Inductor Saturation Model
*   Use model for Time Domain simulations
*======================================================================
.subckt XEL5020-681_sat port1 port2 PARAMS: Cpar=6.79pF Ind=0.682uH
X1 port1 port2 Model1C PARAMS:
+ R1=0.01
+ R2=0.0089
+ C= {Cpar}
+ K1=0.00001
+ K2=0.154
+ K3= {Ind}
+ K4=0.0001
+ K5=0.01
+ L=6.8381E-07
+ Is=40.048277
+ a=0.67001786
+ L_Z0=0
+ L_EL=0
+ L_F0=0E6
+ PkZ=1322.89173
.ends XEL5020-681_sat

*======================================================================
* SPICE Model generated by Coilcraft
* Coilcraft Part Number : XEL5020-901
* Inductance = 0.902uH
*======================================================================
* Model Parameters:
*   Valid Frequency Range = 0.1MHz-200MHz
*   Ambient Temperature = 25 degC
*   Inductor Frequency Model
*   Use model for Frequency Domain simulations
*======================================================================
.subckt XEL5020-901_freq port1 port2 PARAMS: Cpar=8.2pF Ind=0.902uH
X1 port1 port2 Model1A PARAMS:
+ R1=0.01
+ R2=0.0109
+ C= {Cpar}
+ K1=0.00001
+ K2=0.22
+ K3= {Ind}
+ K4=0.0001
+ K5=0.01
+ L=8.7449E-07
+ Is=38.6313386
+ a=0.60954019
+ L_Z0=0
+ L_EL=0
+ L_F0=0E6
+ PkZ=1681.37588
.ends XEL5020-901_freq

*======================================================================
* SPICE Model generated by Coilcraft
* Coilcraft Part Number : XEL5020-901
* Inductance = 0.902uH
*======================================================================
* Model Parameters:
*   Valid Frequency Range = 0.1MHz-200MHz
*   Ambient Temperature = 25 degC
*   Inductor Saturation Model
*   Use model for Time Domain simulations
*======================================================================
.subckt XEL5020-901_sat port1 port2 PARAMS: Cpar=8.19pF Ind=0.902uH
X1 port1 port2 Model1C PARAMS:
+ R1=0.01
+ R2=0.0109
+ C= {Cpar}
+ K1=0.00001
+ K2=0.22
+ K3= {Ind}
+ K4=0.0001
+ K5=0.01
+ L=8.7449E-07
+ Is=38.6313386
+ a=0.60954019
+ L_Z0=0
+ L_EL=0
+ L_F0=0E6
+ PkZ=1681.37588
.ends XEL5020-901_sat

*======================================================================
* SPICE Model generated by Coilcraft
* Coilcraft Part Number : XEL5020-102
* Inductance = 0.95uH
*======================================================================
* Model Parameters:
*   Valid Frequency Range = 0.1MHz-200MHz
*   Ambient Temperature = 25 degC
*   Inductor Frequency Model
*   Use model for Frequency Domain simulations
*======================================================================
.subckt XEL5020-102_freq port1 port2 PARAMS: Cpar=8.8pF Ind=0.95uH
X1 port1 port2 Model1A PARAMS:
+ R1=0.01
+ R2=0.0126
+ C= {Cpar}
+ K1=0.00001
+ K2=0.26
+ K3= {Ind}
+ K4=0.0001
+ K5=0.01
+ L=9.9111E-07
+ Is=33.5883694
+ a=0.62058399
+ L_Z0=0
+ L_EL=0
+ L_F0=0E6
+ PkZ=1926.77793
.ends XEL5020-102_freq

*======================================================================
* SPICE Model generated by Coilcraft
* Coilcraft Part Number : XEL5020-102
* Inductance = 0.95uH
*======================================================================
* Model Parameters:
*   Valid Frequency Range = 0.1MHz-200MHz
*   Ambient Temperature = 25 degC
*   Inductor Saturation Model
*   Use model for Time Domain simulations
*======================================================================
.subckt XEL5020-102_sat port1 port2 PARAMS: Cpar=8.79pF Ind=0.95uH
X1 port1 port2 Model1C PARAMS:
+ R1=0.01
+ R2=0.0126
+ C= {Cpar}
+ K1=0.00001
+ K2=0.26
+ K3= {Ind}
+ K4=0.0001
+ K5=0.01
+ L=9.9111E-07
+ Is=33.5883694
+ a=0.62058399
+ L_Z0=0
+ L_EL=0
+ L_F0=0E6
+ PkZ=1926.77793
.ends XEL5020-102_sat

*======================================================================
* SPICE Model generated by Coilcraft
* Coilcraft Saturation Inductor Model
*======================================================================
* Model Parameters:
*   Valid Frequency Range Varies by Inductor
*   Ambient Temperature = 25 degC
*   Current Saturable Inductor Model
*======================================================================
.subckt Model1C Lin Lout PARAMS:
+ R1=1
+ R2=1
+ C=1
+ L=1
+ Is=1
+ a=1
+ PkZ=94.2 * {L} *1e6
R2 N001 Lin {R2}
R3 Lout N001 {PkZ}
C1 N002 N001 {C}
R1 Lout N002 {R1}
E1 N003 N001 N004 0 1
G1 0 N004 VALUE={{L*Is}*tanh((I(E1)/{Is})**{a})**{1/a}}
L1 N004 0 1
E2 N003 Lout N005 0 1
G2 0 N005 VALUE={{L*Is}*tanh((I(E2)/{Is})**{a})**{1/a}}
L2 N005 0 1
.ends Model1C
*======================================================================
* SPICE Model generated by Coilcraft
* Coilcraft Power Inductor Model
*======================================================================
* Model Parameters:
*   Valid Frequency Range Varies by Inductor
*   Ambient Temperature = 25 degC
*   DC Bias Current = 0 A
*   Frequency Dependent Inductor Model
*======================================================================
.subckt Model1A Lin Lout PARAMS:
+ R1=1
+ R2=1
+ C=1
+ K1=1
+ K2=1
+ K3=1
+ K4=1
+ K5=1
R2 N001 Lin {R2}
R1 Lout N002 {R1}
C1 N002 N001 {C}
G_Rvar2 N001 Lout LAPLACE { V(N001, Lout) } {1/K2/(-S*S/4/PI^2)^0.25}
G_Rvar1 N001 N003 LAPLACE { V(N001, N003) } {1/K1/(-S*S/4/PI^2)^0.25}
G_Lvar N003 Lout  LAPLACE { V(N003, Lout) } {1/(S*1e-6*({K3*1e6}-({K4}*LOG({K5}*(sqrt(-S*S)/(2*pi))))))}
*This large resistance to ground has been added to prevent a floating node error
R3 N003 0 100Meg
.ends Model1A


.subckt Coilcraft_Inductor Lin Lout
R1 Lout Lin 100Meg
.ends Coilcraft_Inductor
