*======================================================================
* SPICE Model generated by Coilcraft
* Coilcraft Part Number : XEL6060-331
* Inductance = 0.331uH
*======================================================================
* Model Parameters:
*   Valid Frequency Range = 0.1MHz-200MHz
*   Ambient Temperature = 25 degC
*   Inductor Frequency Model
*   Use model for Frequency Domain simulations
*======================================================================
.subckt XEL6060-331_freq port1 port2 PARAMS: Cpar=10.5pF Ind=0.331uH
X1 port1 port2 Model1A PARAMS:
+ R1=45
+ R2=0.00198
+ C= {Cpar}
+ K1=0.000001
+ K2=0.5
+ K3= {Ind}
+ K4=0.0001
+ K5=0.0001
+ L=3.583E-07
+ Is=67.5250733
+ a=0.73600878
+ L_Z0=0
+ L_EL=0
+ L_F0=0E6
+ PkZ=625.683461
.ends XEL6060-331_freq

*======================================================================
* SPICE Model generated by Coilcraft
* Coilcraft Part Number : XEL6060-331
* Inductance = 0.331uH
*======================================================================
* Model Parameters:
*   Valid Frequency Range = 0.1MHz-200MHz
*   Ambient Temperature = 25 degC
*   Inductor Saturation Model
*   Use model for Time Domain simulations
*======================================================================
.subckt XEL6060-331_sat port1 port2 PARAMS: Cpar=10.47pF Ind=0.331uH
X1 port1 port2 Model1C PARAMS:
+ R1=45
+ R2=0.00198
+ C= {Cpar}
+ K1=0.000001
+ K2=0.5
+ K3= {Ind}
+ K4=0.0001
+ K5=0.0001
+ L=3.583E-07
+ Is=67.5250733
+ a=0.73600878
+ L_Z0=0
+ L_EL=0
+ L_F0=0E6
+ PkZ=625.683461
.ends XEL6060-331_sat

*======================================================================
* SPICE Model generated by Coilcraft
* Coilcraft Part Number : XEL6060-561
* Inductance = 0.561uH
*======================================================================
* Model Parameters:
*   Valid Frequency Range = 0.1MHz-100MHz
*   Ambient Temperature = 25 degC
*   Inductor Frequency Model
*   Use model for Frequency Domain simulations
*======================================================================
.subckt XEL6060-561_freq port1 port2 PARAMS: Cpar=9.6pF Ind=0.561uH
X1 port1 port2 Model1A PARAMS:
+ R1=45
+ R2=0.0026
+ C= {Cpar}
+ K1=0.000001
+ K2=0.6
+ K3= {Ind}
+ K4=0.0001
+ K5=0.0001
+ L=5.823E-07
+ Is=57.0489784
+ a=0.71607915
+ L_Z0=0
+ L_EL=0
+ L_F0=0E6
+ PkZ=1045.10307
.ends XEL6060-561_freq

*======================================================================
* SPICE Model generated by Coilcraft
* Coilcraft Part Number : XEL6060-561
* Inductance = 0.561uH
*======================================================================
* Model Parameters:
*   Valid Frequency Range = 0.1MHz-100MHz
*   Ambient Temperature = 25 degC
*   Inductor Saturation Model
*   Use model for Time Domain simulations
*======================================================================
.subckt XEL6060-561_sat port1 port2 PARAMS: Cpar=9.58pF Ind=0.561uH
X1 port1 port2 Model1C PARAMS:
+ R1=45
+ R2=0.0026
+ C= {Cpar}
+ K1=0.000001
+ K2=0.6
+ K3= {Ind}
+ K4=0.0001
+ K5=0.0001
+ L=5.823E-07
+ Is=57.0489784
+ a=0.71607915
+ L_Z0=0
+ L_EL=0
+ L_F0=0E6
+ PkZ=1045.10307
.ends XEL6060-561_sat

*======================================================================
* SPICE Model generated by Coilcraft
* Coilcraft Part Number : XEL6060-821
* Inductance = 0.822uH
*======================================================================
* Model Parameters:
*   Valid Frequency Range = 0.1MHz-80MHz
*   Ambient Temperature = 25 degC
*   Inductor Frequency Model
*   Use model for Frequency Domain simulations
*======================================================================
.subckt XEL6060-821_freq port1 port2 PARAMS: Cpar=11.5pF Ind=0.822uH
X1 port1 port2 Model1A PARAMS:
+ R1=35
+ R2=0.00303
+ C= {Cpar}
+ K1=0.000001
+ K2=1
+ K3= {Ind}
+ K4=0.0001
+ K5=0.0001
+ L=8.1818E-07
+ Is=47.6264985
+ a=0.74120363
+ L_Z0=0
+ L_EL=0
+ L_F0=0E6
+ PkZ=1602.16679
.ends XEL6060-821_freq

*======================================================================
* SPICE Model generated by Coilcraft
* Coilcraft Part Number : XEL6060-821
* Inductance = 0.822uH
*======================================================================
* Model Parameters:
*   Valid Frequency Range = 0.1MHz-80MHz
*   Ambient Temperature = 25 degC
*   Inductor Saturation Model
*   Use model for Time Domain simulations
*======================================================================
.subckt XEL6060-821_sat port1 port2 PARAMS: Cpar=11.49pF Ind=0.822uH
X1 port1 port2 Model1C PARAMS:
+ R1=35
+ R2=0.00303
+ C= {Cpar}
+ K1=0.000001
+ K2=1
+ K3= {Ind}
+ K4=0.0001
+ K5=0.0001
+ L=8.1818E-07
+ Is=47.6264985
+ a=0.74120363
+ L_Z0=0
+ L_EL=0
+ L_F0=0E6
+ PkZ=1602.16679
.ends XEL6060-821_sat

*======================================================================
* SPICE Model generated by Coilcraft
* Coilcraft Part Number : XEL6060-102
* Inductance = 1.01uH
*======================================================================
* Model Parameters:
*   Valid Frequency Range = 0.1MHz-70MHz
*   Ambient Temperature = 25 degC
*   Inductor Frequency Model
*   Use model for Frequency Domain simulations
*======================================================================
.subckt XEL6060-102_freq port1 port2 PARAMS: Cpar=9.8pF Ind=1.01uH
X1 port1 port2 Model1A PARAMS:
+ R1=30
+ R2=0.0037
+ C= {Cpar}
+ K1=0.000001
+ K2=0.8
+ K3= {Ind}
+ K4=0.0001
+ K5=0.0001
+ L=1.0897E-06
+ Is=43.6531253
+ a=0.73581965
+ L_Z0=0
+ L_EL=0
+ L_F0=0E6
+ PkZ=2148.816
.ends XEL6060-102_freq

*======================================================================
* SPICE Model generated by Coilcraft
* Coilcraft Part Number : XEL6060-102
* Inductance = 1.01uH
*======================================================================
* Model Parameters:
*   Valid Frequency Range = 0.1MHz-70MHz
*   Ambient Temperature = 25 degC
*   Inductor Saturation Model
*   Use model for Time Domain simulations
*======================================================================
.subckt XEL6060-102_sat port1 port2 PARAMS: Cpar=9.79pF Ind=1.01uH
X1 port1 port2 Model1C PARAMS:
+ R1=30
+ R2=0.0037
+ C= {Cpar}
+ K1=0.000001
+ K2=0.8
+ K3= {Ind}
+ K4=0.0001
+ K5=0.0001
+ L=1.0897E-06
+ Is=43.6531253
+ a=0.73581965
+ L_Z0=0
+ L_EL=0
+ L_F0=0E6
+ PkZ=2148.816
.ends XEL6060-102_sat

*======================================================================
* SPICE Model generated by Coilcraft
* Coilcraft Part Number : XEL6060-152
* Inductance = 1.5uH
*======================================================================
* Model Parameters:
*   Valid Frequency Range = 0.1MHz-60MHz
*   Ambient Temperature = 25 degC
*   Inductor Frequency Model
*   Use model for Frequency Domain simulations
*======================================================================
.subckt XEL6060-152_freq port1 port2 PARAMS: Cpar=12pF Ind=1.5uH
X1 port1 port2 Model1A PARAMS:
+ R1=30
+ R2=0.00428
+ C= {Cpar}
+ K1=0.000001
+ K2=0.94
+ K3= {Ind}
+ K4=0.0001
+ K5=0.0001
+ L=1.3587E-06
+ Is=39.0625646
+ a=0.76043669
+ L_Z0=0
+ L_EL=0
+ L_F0=0E6
+ PkZ=2423.49425
.ends XEL6060-152_freq

*======================================================================
* SPICE Model generated by Coilcraft
* Coilcraft Part Number : XEL6060-152
* Inductance = 1.5uH
*======================================================================
* Model Parameters:
*   Valid Frequency Range = 0.1MHz-60MHz
*   Ambient Temperature = 25 degC
*   Inductor Saturation Model
*   Use model for Time Domain simulations
*======================================================================
.subckt XEL6060-152_sat port1 port2 PARAMS: Cpar=11.99pF Ind=1.5uH
X1 port1 port2 Model1C PARAMS:
+ R1=30
+ R2=0.00428
+ C= {Cpar}
+ K1=0.000001
+ K2=0.94
+ K3= {Ind}
+ K4=0.0001
+ K5=0.0001
+ L=1.3587E-06
+ Is=39.0625646
+ a=0.76043669
+ L_Z0=0
+ L_EL=0
+ L_F0=0E6
+ PkZ=2423.49425
.ends XEL6060-152_sat

*======================================================================
* SPICE Model generated by Coilcraft
* Coilcraft Part Number : XEL6060-222
* Inductance = 2.2uH
*======================================================================
* Model Parameters:
*   Valid Frequency Range = 0.1MHz-50MHz
*   Ambient Temperature = 25 degC
*   Inductor Frequency Model
*   Use model for Frequency Domain simulations
*======================================================================
.subckt XEL6060-222_freq port1 port2 PARAMS: Cpar=10pF Ind=2.2uH
X1 port1 port2 Model1A PARAMS:
+ R1=30
+ R2=0.0061
+ C= {Cpar}
+ K1=0.000001
+ K2=1.6
+ K3= {Ind}
+ K4=0.0001
+ K5=0.0001
+ L=2.0751E-06
+ Is=33.2891341
+ a=0.75022481
+ L_Z0=0
+ L_EL=0
+ L_F0=0E6
+ PkZ=4109.7537
.ends XEL6060-222_freq

*======================================================================
* SPICE Model generated by Coilcraft
* Coilcraft Part Number : XEL6060-222
* Inductance = 2.2uH
*======================================================================
* Model Parameters:
*   Valid Frequency Range = 0.1MHz-50MHz
*   Ambient Temperature = 25 degC
*   Inductor Saturation Model
*   Use model for Time Domain simulations
*======================================================================
.subckt XEL6060-222_sat port1 port2 PARAMS: Cpar=10.00pF Ind=2.2uH
X1 port1 port2 Model1C PARAMS:
+ R1=30
+ R2=0.0061
+ C= {Cpar}
+ K1=0.000001
+ K2=1.6
+ K3= {Ind}
+ K4=0.0001
+ K5=0.0001
+ L=2.0751E-06
+ Is=33.2891341
+ a=0.75022481
+ L_Z0=0
+ L_EL=0
+ L_F0=0E6
+ PkZ=4109.7537
.ends XEL6060-222_sat

*======================================================================
* SPICE Model generated by Coilcraft
* Coilcraft Part Number : XEL6060-272
* Inductance = 2.7uH
*======================================================================
* Model Parameters:
*   Valid Frequency Range = 0.1MHz-40MHz
*   Ambient Temperature = 25 degC
*   Inductor Frequency Model
*   Use model for Frequency Domain simulations
*======================================================================
.subckt XEL6060-272_freq port1 port2 PARAMS: Cpar=11.5pF Ind=2.7uH
X1 port1 port2 Model1A PARAMS:
+ R1=30
+ R2=0.00694
+ C= {Cpar}
+ K1=0.000001
+ K2=2
+ K3= {Ind}
+ K4=0.0001
+ K5=0.0001
+ L=2.5917E-06
+ Is=28.7786283
+ a=0.7488133
+ L_Z0=0
+ L_EL=0
+ L_F0=0E6
+ PkZ=4524.06366
.ends XEL6060-272_freq

*======================================================================
* SPICE Model generated by Coilcraft
* Coilcraft Part Number : XEL6060-272
* Inductance = 2.7uH
*======================================================================
* Model Parameters:
*   Valid Frequency Range = 0.1MHz-40MHz
*   Ambient Temperature = 25 degC
*   Inductor Saturation Model
*   Use model for Time Domain simulations
*======================================================================
.subckt XEL6060-272_sat port1 port2 PARAMS: Cpar=11.50pF Ind=2.7uH
X1 port1 port2 Model1C PARAMS:
+ R1=30
+ R2=0.00694
+ C= {Cpar}
+ K1=0.000001
+ K2=2
+ K3= {Ind}
+ K4=0.0001
+ K5=0.0001
+ L=2.5917E-06
+ Is=28.7786283
+ a=0.7488133
+ L_Z0=0
+ L_EL=0
+ L_F0=0E6
+ PkZ=4524.06366
.ends XEL6060-272_sat

*======================================================================
* SPICE Model generated by Coilcraft
* Coilcraft Part Number : XEL6060-472
* Inductance = 4.69uH
*======================================================================
* Model Parameters:
*   Valid Frequency Range = 0.1MHz-40MHz
*   Ambient Temperature = 25 degC
*   Inductor Frequency Model
*   Use model for Frequency Domain simulations
*======================================================================
.subckt XEL6060-472_freq port1 port2 PARAMS: Cpar=10pF Ind=4.69uH
X1 port1 port2 Model1A PARAMS:
+ R1=30
+ R2=0.01365
+ C= {Cpar}
+ K1=0.000001
+ K2=4
+ K3= {Ind}
+ K4=0.0001
+ K5=0.0001
+ L=4.4111E-06
+ Is=23.8276838
+ a=0.73460316
+ L_Z0=0
+ L_EL=0
+ L_F0=0E6
+ PkZ=8638.96935
.ends XEL6060-472_freq

*======================================================================
* SPICE Model generated by Coilcraft
* Coilcraft Part Number : XEL6060-472
* Inductance = 4.69uH
*======================================================================
* Model Parameters:
*   Valid Frequency Range = 0.1MHz-40MHz
*   Ambient Temperature = 25 degC
*   Inductor Saturation Model
*   Use model for Time Domain simulations
*======================================================================
.subckt XEL6060-472_sat port1 port2 PARAMS: Cpar=10.00pF Ind=4.69uH
X1 port1 port2 Model1C PARAMS:
+ R1=30
+ R2=0.01365
+ C= {Cpar}
+ K1=0.000001
+ K2=4
+ K3= {Ind}
+ K4=0.0001
+ K5=0.0001
+ L=4.4111E-06
+ Is=23.8276838
+ a=0.73460316
+ L_Z0=0
+ L_EL=0
+ L_F0=0E6
+ PkZ=8638.96935
.ends XEL6060-472_sat

*======================================================================
* SPICE Model generated by Coilcraft
* Coilcraft Part Number : XEL6060-682
* Inductance = 6.79uH
*======================================================================
* Model Parameters:
*   Valid Frequency Range = 0.1MHz-30MHz
*   Ambient Temperature = 25 degC
*   Inductor Frequency Model
*   Use model for Frequency Domain simulations
*======================================================================
.subckt XEL6060-682_freq port1 port2 PARAMS: Cpar=11pF Ind=6.79uH
X1 port1 port2 Model1A PARAMS:
+ R1=30
+ R2=0.02082
+ C= {Cpar}
+ K1=0.000001
+ K2=7
+ K3= {Ind}
+ K4=0.0001
+ K5=0.0001
+ L=6.7995E-06
+ Is=17.1633676
+ a=0.73163735
+ L_Z0=0
+ L_EL=0
+ L_F0=0E6
+ PkZ=12217.1892
.ends XEL6060-682_freq

*======================================================================
* SPICE Model generated by Coilcraft
* Coilcraft Part Number : XEL6060-682
* Inductance = 6.79uH
*======================================================================
* Model Parameters:
*   Valid Frequency Range = 0.1MHz-30MHz
*   Ambient Temperature = 25 degC
*   Inductor Saturation Model
*   Use model for Time Domain simulations
*======================================================================
.subckt XEL6060-682_sat port1 port2 PARAMS: Cpar=11.00pF Ind=6.79uH
X1 port1 port2 Model1C PARAMS:
+ R1=30
+ R2=0.02082
+ C= {Cpar}
+ K1=0.000001
+ K2=7
+ K3= {Ind}
+ K4=0.0001
+ K5=0.0001
+ L=6.7995E-06
+ Is=17.1633676
+ a=0.73163735
+ L_Z0=0
+ L_EL=0
+ L_F0=0E6
+ PkZ=12217.1892
.ends XEL6060-682_sat

*======================================================================
* SPICE Model generated by Coilcraft
* Coilcraft Part Number : XEL6060-822
* Inductance = 8.18uH
*======================================================================
* Model Parameters:
*   Valid Frequency Range = 0.1MHz-20MHz
*   Ambient Temperature = 25 degC
*   Inductor Frequency Model
*   Use model for Frequency Domain simulations
*======================================================================
.subckt XEL6060-822_freq port1 port2 PARAMS: Cpar=11.5pF Ind=8.18uH
X1 port1 port2 Model1A PARAMS:
+ R1=30
+ R2=0.02271
+ C= {Cpar}
+ K1=0.000001
+ K2=6
+ K3= {Ind}
+ K4=0.0001
+ K5=0.0001
+ L=8.1375E-06
+ Is=16.3573058
+ a=0.73428079
+ L_Z0=0
+ L_EL=0
+ L_F0=0E6
+ PkZ=12006.5083
.ends XEL6060-822_freq

*======================================================================
* SPICE Model generated by Coilcraft
* Coilcraft Part Number : XEL6060-822
* Inductance = 8.18uH
*======================================================================
* Model Parameters:
*   Valid Frequency Range = 0.1MHz-20MHz
*   Ambient Temperature = 25 degC
*   Inductor Saturation Model
*   Use model for Time Domain simulations
*======================================================================
.subckt XEL6060-822_sat port1 port2 PARAMS: Cpar=11.50pF Ind=8.18uH
X1 port1 port2 Model1C PARAMS:
+ R1=30
+ R2=0.02271
+ C= {Cpar}
+ K1=0.000001
+ K2=6
+ K3= {Ind}
+ K4=0.0001
+ K5=0.0001
+ L=8.1375E-06
+ Is=16.3573058
+ a=0.73428079
+ L_Z0=0
+ L_EL=0
+ L_F0=0E6
+ PkZ=12006.5083
.ends XEL6060-822_sat

*======================================================================
* SPICE Model generated by Coilcraft
* Coilcraft Part Number : XEL6060-123
* Inductance = 12uH
*======================================================================
* Model Parameters:
*   Valid Frequency Range = 0.1MHz-20MHz
*   Ambient Temperature = 25 degC
*   Inductor Frequency Model
*   Use model for Frequency Domain simulations
*======================================================================
.subckt XEL6060-123_freq port1 port2 PARAMS: Cpar=11.5pF Ind=12uH
X1 port1 port2 Model1A PARAMS:
+ R1=30
+ R2=0.03666
+ C= {Cpar}
+ K1=0.000001
+ K2=10
+ K3= {Ind}
+ K4=0.0001
+ K5=0.0001
+ L=1.2496E-05
+ Is=12.374967
+ a=0.75377643
+ L_Z0=0
+ L_EL=0
+ L_F0=0E6
+ PkZ=17887.6642
.ends XEL6060-123_freq

*======================================================================
* SPICE Model generated by Coilcraft
* Coilcraft Part Number : XEL6060-123
* Inductance = 12uH
*======================================================================
* Model Parameters:
*   Valid Frequency Range = 0.1MHz-20MHz
*   Ambient Temperature = 25 degC
*   Inductor Saturation Model
*   Use model for Time Domain simulations
*======================================================================
.subckt XEL6060-123_sat port1 port2 PARAMS: Cpar=11.50pF Ind=12uH
X1 port1 port2 Model1C PARAMS:
+ R1=30
+ R2=0.03666
+ C= {Cpar}
+ K1=0.000001
+ K2=10
+ K3= {Ind}
+ K4=0.0001
+ K5=0.0001
+ L=1.2496E-05
+ Is=12.374967
+ a=0.75377643
+ L_Z0=0
+ L_EL=0
+ L_F0=0E6
+ PkZ=17887.6642
.ends XEL6060-123_sat

*======================================================================
* SPICE Model generated by Coilcraft
* Coilcraft Saturation Inductor Model
*======================================================================
* Model Parameters:
*   Valid Frequency Range Varies by Inductor
*   Ambient Temperature = 25 degC
*   Current Saturable Inductor Model
*======================================================================
.subckt Model1C Lin Lout PARAMS:
+ R1=1
+ R2=1
+ C=1
+ L=1
+ Is=1
+ a=1
+ PkZ=94.2 * {L} *1e6
R2 N001 Lin {R2}
R3 Lout N001 {PkZ}
C1 N002 N001 {C}
R1 Lout N002 {R1}
E1 N003 N001 N004 0 1
G1 0 N004 VALUE={{L*Is}*tanh((I(E1)/{Is})**{a})**{1/a}}
L1 N004 0 1
E2 N003 Lout N005 0 1
G2 0 N005 VALUE={{L*Is}*tanh((I(E2)/{Is})**{a})**{1/a}}
L2 N005 0 1
.ends Model1C
*======================================================================
* SPICE Model generated by Coilcraft
* Coilcraft Power Inductor Model
*======================================================================
* Model Parameters:
*   Valid Frequency Range Varies by Inductor
*   Ambient Temperature = 25 degC
*   DC Bias Current = 0 A
*   Frequency Dependent Inductor Model
*======================================================================
.subckt Model1A Lin Lout PARAMS:
+ R1=1
+ R2=1
+ C=1
+ K1=1
+ K2=1
+ K3=1
+ K4=1
+ K5=1
R2 N001 Lin {R2}
R1 Lout N002 {R1}
C1 N002 N001 {C}
G_Rvar2 N001 Lout LAPLACE { V(N001, Lout) } {1/K2/(-S*S/4/PI^2)^0.25}
G_Rvar1 N001 N003 LAPLACE { V(N001, N003) } {1/K1/(-S*S/4/PI^2)^0.25}
G_Lvar N003 Lout  LAPLACE { V(N003, Lout) } {1/(S*1e-6*({K3*1e6}-({K4}*LOG({K5}*(sqrt(-S*S)/(2*pi))))))}
*This large resistance to ground has been added to prevent a floating node error
R3 N003 0 100Meg
.ends Model1A


.subckt Coilcraft_Inductor Lin Lout
R1 Lout Lin 100Meg
.ends Coilcraft_Inductor
