*======================================================================
* SPICE Model generated by Coilcraft
* Coilcraft Part Number : XFL3010-601
* Inductance = 0.6uH
*======================================================================
* Model Parameters:
*   Valid Frequency Range = 0.1MHz-400MHz
*   Ambient Temperature = 25 degC
*   Inductor Frequency Model
*   Use model for Frequency Domain simulations
*======================================================================
.subckt XFL3010-601_freq port1 port2 PARAMS: Cpar=1.41pF Ind=0.6uH
X1 port1 port2 Model1A PARAMS:
+ R1=30
+ R2=0.03
+ C= {Cpar}
+ K1=0.00001
+ K2=0.088
+ K3= {Ind}
+ K4=0.001
+ K5=0.000007
+ L=5.4369E-07
+ Is=4.07952446
+ a=1.70457191
+ L_Z0=0
+ L_EL=0
+ L_F0=0E6
+ PkZ=1072.05105
.ends XFL3010-601_freq

*======================================================================
* SPICE Model generated by Coilcraft
* Coilcraft Part Number : XFL3010-601
* Inductance = 0.6uH
*======================================================================
* Model Parameters:
*   Valid Frequency Range = 0.1MHz-400MHz
*   Ambient Temperature = 25 degC
*   Inductor Saturation Model
*   Use model for Time Domain simulations
*======================================================================
.subckt XFL3010-601_sat port1 port2 PARAMS: Cpar=1.39pF Ind=0.6uH
X1 port1 port2 Model1C PARAMS:
+ R1=30
+ R2=0.03
+ C= {Cpar}
+ K1=0.00001
+ K2=0.088
+ K3= {Ind}
+ K4=0.001
+ K5=0.000007
+ L=5.4369E-07
+ Is=4.07952446
+ a=1.70457191
+ L_Z0=0
+ L_EL=0
+ L_F0=0E6
+ PkZ=1072.05105
.ends XFL3010-601_sat

*======================================================================
* SPICE Model generated by Coilcraft
* Coilcraft Part Number : XFL3010-102
* Inductance = 1uH
*======================================================================
* Model Parameters:
*   Valid Frequency Range = 0.1MHz-300MHz
*   Ambient Temperature = 25 degC
*   Inductor Frequency Model
*   Use model for Frequency Domain simulations
*======================================================================
.subckt XFL3010-102_freq port1 port2 PARAMS: Cpar=1.72pF Ind=1uH
X1 port1 port2 Model1A PARAMS:
+ R1=28
+ R2=0.043
+ C= {Cpar}
+ K1=0.00002
+ K2=0.17
+ K3= {Ind}
+ K4=0.001
+ K5=0.000001
+ L=9.5388E-07
+ Is=3.64341295
+ a=1.19158653
+ L_Z0=0
+ L_EL=0
+ L_F0=0E6
+ PkZ=1718.11833
.ends XFL3010-102_freq

*======================================================================
* SPICE Model generated by Coilcraft
* Coilcraft Part Number : XFL3010-102
* Inductance = 1uH
*======================================================================
* Model Parameters:
*   Valid Frequency Range = 0.1MHz-300MHz
*   Ambient Temperature = 25 degC
*   Inductor Saturation Model
*   Use model for Time Domain simulations
*======================================================================
.subckt XFL3010-102_sat port1 port2 PARAMS: Cpar=1.71pF Ind=1uH
X1 port1 port2 Model1C PARAMS:
+ R1=28
+ R2=0.043
+ C= {Cpar}
+ K1=0.00002
+ K2=0.17
+ K3= {Ind}
+ K4=0.001
+ K5=0.000001
+ L=9.5388E-07
+ Is=3.64341295
+ a=1.19158653
+ L_Z0=0
+ L_EL=0
+ L_F0=0E6
+ PkZ=1718.11833
.ends XFL3010-102_sat

*======================================================================
* SPICE Model generated by Coilcraft
* Coilcraft Part Number : XFL3010-152
* Inductance = 1.5uH
*======================================================================
* Model Parameters:
*   Valid Frequency Range = 0.1MHz-200MHz
*   Ambient Temperature = 25 degC
*   Inductor Frequency Model
*   Use model for Frequency Domain simulations
*======================================================================
.subckt XFL3010-152_freq port1 port2 PARAMS: Cpar=1.58pF Ind=1.5uH
X1 port1 port2 Model1A PARAMS:
+ R1=50
+ R2=0.071
+ C= {Cpar}
+ K1=0.0001
+ K2=0.29
+ K3= {Ind}
+ K4=0.001
+ K5=0.000003
+ L=1.5189E-06
+ Is=2.85043108
+ a=1.41436749
+ L_Z0=0
+ L_EL=0
+ L_F0=0E6
+ PkZ=2546.99649
.ends XFL3010-152_freq

*======================================================================
* SPICE Model generated by Coilcraft
* Coilcraft Part Number : XFL3010-152
* Inductance = 1.5uH
*======================================================================
* Model Parameters:
*   Valid Frequency Range = 0.1MHz-200MHz
*   Ambient Temperature = 25 degC
*   Inductor Saturation Model
*   Use model for Time Domain simulations
*======================================================================
.subckt XFL3010-152_sat port1 port2 PARAMS: Cpar=1.57pF Ind=1.5uH
X1 port1 port2 Model1C PARAMS:
+ R1=50
+ R2=0.071
+ C= {Cpar}
+ K1=0.0001
+ K2=0.29
+ K3= {Ind}
+ K4=0.001
+ K5=0.000003
+ L=1.5189E-06
+ Is=2.85043108
+ a=1.41436749
+ L_Z0=0
+ L_EL=0
+ L_F0=0E6
+ PkZ=2546.99649
.ends XFL3010-152_sat

*======================================================================
* SPICE Model generated by Coilcraft
* Coilcraft Part Number : XFL3010-222
* Inductance = 2.2uH
*======================================================================
* Model Parameters:
*   Valid Frequency Range = 0.1MHz-100MHz
*   Ambient Temperature = 25 degC
*   Inductor Frequency Model
*   Use model for Frequency Domain simulations
*======================================================================
.subckt XFL3010-222_freq port1 port2 PARAMS: Cpar=1.82pF Ind=2.2uH
X1 port1 port2 Model1A PARAMS:
+ R1=70
+ R2=0.111
+ C= {Cpar}
+ K1=0.0003
+ K2=0.52
+ K3= {Ind}
+ K4=0.003
+ K5=0.000004
+ L=2.4116E-06
+ Is=2.36046362
+ a=1.2352645
+ L_Z0=0
+ L_EL=0
+ L_F0=0E6
+ PkZ=3628.60793
.ends XFL3010-222_freq

*======================================================================
* SPICE Model generated by Coilcraft
* Coilcraft Part Number : XFL3010-222
* Inductance = 2.2uH
*======================================================================
* Model Parameters:
*   Valid Frequency Range = 0.1MHz-100MHz
*   Ambient Temperature = 25 degC
*   Inductor Saturation Model
*   Use model for Time Domain simulations
*======================================================================
.subckt XFL3010-222_sat port1 port2 PARAMS: Cpar=1.81pF Ind=2.2uH
X1 port1 port2 Model1C PARAMS:
+ R1=70
+ R2=0.111
+ C= {Cpar}
+ K1=0.0003
+ K2=0.52
+ K3= {Ind}
+ K4=0.003
+ K5=0.000004
+ L=2.4116E-06
+ Is=2.36046362
+ a=1.2352645
+ L_Z0=0
+ L_EL=0
+ L_F0=0E6
+ PkZ=3628.60793
.ends XFL3010-222_sat

*======================================================================
* SPICE Model generated by Coilcraft
* Coilcraft Part Number : XFL3010-332
* Inductance = 3.3uH
*======================================================================
* Model Parameters:
*   Valid Frequency Range = 0.1MHz-90MHz
*   Ambient Temperature = 25 degC
*   Inductor Frequency Model
*   Use model for Frequency Domain simulations
*======================================================================
.subckt XFL3010-332_freq port1 port2 PARAMS: Cpar=1.7pF Ind=3.3uH
X1 port1 port2 Model1A PARAMS:
+ R1=90
+ R2=0.154
+ C= {Cpar}
+ K1=0.0001
+ K2=0.76
+ K3= {Ind}
+ K4=0.012
+ K5=0.000009
+ L=3.269E-06
+ Is=2.29966042
+ a=1.06324597
+ L_Z0=0
+ L_EL=0
+ L_F0=0E6
+ PkZ=4824.11892
.ends XFL3010-332_freq

*======================================================================
* SPICE Model generated by Coilcraft
* Coilcraft Part Number : XFL3010-332
* Inductance = 3.3uH
*======================================================================
* Model Parameters:
*   Valid Frequency Range = 0.1MHz-90MHz
*   Ambient Temperature = 25 degC
*   Inductor Saturation Model
*   Use model for Time Domain simulations
*======================================================================
.subckt XFL3010-332_sat port1 port2 PARAMS: Cpar=1.66pF Ind=3.3uH
X1 port1 port2 Model1C PARAMS:
+ R1=90
+ R2=0.154
+ C= {Cpar}
+ K1=0.0001
+ K2=0.76
+ K3= {Ind}
+ K4=0.012
+ K5=0.000009
+ L=3.269E-06
+ Is=2.29966042
+ a=1.06324597
+ L_Z0=0
+ L_EL=0
+ L_F0=0E6
+ PkZ=4824.11892
.ends XFL3010-332_sat

*======================================================================
* SPICE Model generated by Coilcraft
* Coilcraft Part Number : XFL3010-472
* Inductance = 4.7uH
*======================================================================
* Model Parameters:
*   Valid Frequency Range = 0.1MHz-70MHz
*   Ambient Temperature = 25 degC
*   Inductor Frequency Model
*   Use model for Frequency Domain simulations
*======================================================================
.subckt XFL3010-472_freq port1 port2 PARAMS: Cpar=1.96pF Ind=4.7uH
X1 port1 port2 Model1A PARAMS:
+ R1=120
+ R2=0.217
+ C= {Cpar}
+ K1=0.000001
+ K2=1.1
+ K3= {Ind}
+ K4=0.024
+ K5=0.0000095
+ L=4.4827E-06
+ Is=1.80944502
+ a=1.4301159
+ L_Z0=0
+ L_EL=0
+ L_F0=0E6
+ PkZ=5683.72618
.ends XFL3010-472_freq

*======================================================================
* SPICE Model generated by Coilcraft
* Coilcraft Part Number : XFL3010-472
* Inductance = 4.7uH
*======================================================================
* Model Parameters:
*   Valid Frequency Range = 0.1MHz-70MHz
*   Ambient Temperature = 25 degC
*   Inductor Saturation Model
*   Use model for Time Domain simulations
*======================================================================
.subckt XFL3010-472_sat port1 port2 PARAMS: Cpar=1.90pF Ind=4.7uH
X1 port1 port2 Model1C PARAMS:
+ R1=120
+ R2=0.217
+ C= {Cpar}
+ K1=0.000001
+ K2=1.1
+ K3= {Ind}
+ K4=0.024
+ K5=0.0000095
+ L=4.4827E-06
+ Is=1.80944502
+ a=1.4301159
+ L_Z0=0
+ L_EL=0
+ L_F0=0E6
+ PkZ=5683.72618
.ends XFL3010-472_sat

*======================================================================
* SPICE Model generated by Coilcraft
* Coilcraft Saturation Inductor Model
*======================================================================
* Model Parameters:
*   Valid Frequency Range Varies by Inductor
*   Ambient Temperature = 25 degC
*   Current Saturable Inductor Model
*======================================================================
.subckt Model1C Lin Lout PARAMS:
+ R1=1
+ R2=1
+ C=1
+ L=1
+ Is=1
+ a=1
+ PkZ=94.2 * {L} *1e6
R2 N001 Lin {R2}
R3 Lout N001 {PkZ}
C1 N002 N001 {C}
R1 Lout N002 {R1}
E1 N003 N001 N004 0 1
G1 0 N004 VALUE={{L*Is}*tanh((I(E1)/{Is})**{a})**{1/a}}
L1 N004 0 1
E2 N003 Lout N005 0 1
G2 0 N005 VALUE={{L*Is}*tanh((I(E2)/{Is})**{a})**{1/a}}
L2 N005 0 1
.ends Model1C
*======================================================================
* SPICE Model generated by Coilcraft
* Coilcraft Power Inductor Model
*======================================================================
* Model Parameters:
*   Valid Frequency Range Varies by Inductor
*   Ambient Temperature = 25 degC
*   DC Bias Current = 0 A
*   Frequency Dependent Inductor Model
*======================================================================
.subckt Model1A Lin Lout PARAMS:
+ R1=1
+ R2=1
+ C=1
+ K1=1
+ K2=1
+ K3=1
+ K4=1
+ K5=1
R2 N001 Lin {R2}
R1 Lout N002 {R1}
C1 N002 N001 {C}
G_Rvar2 N001 Lout LAPLACE { V(N001, Lout) } {1/K2/(-S*S/4/PI^2)^0.25}
G_Rvar1 N001 N003 LAPLACE { V(N001, N003) } {1/K1/(-S*S/4/PI^2)^0.25}
G_Lvar N003 Lout  LAPLACE { V(N003, Lout) } {1/(S*1e-6*({K3*1e6}-({K4}*LOG({K5}*(sqrt(-S*S)/(2*pi))))))}
*This large resistance to ground has been added to prevent a floating node error
R3 N003 0 100Meg
.ends Model1A


.subckt Coilcraft_Inductor Lin Lout
R1 Lout Lin 100Meg
.ends Coilcraft_Inductor
