*======================================================================
* SPICE Model generated by Coilcraft
* Coilcraft Part Number : XFL4012-121
* Inductance = 0.12uH
*======================================================================
* Model Parameters:
*   Valid Frequency Range = 0.1MHz-500MHz
*   Ambient Temperature = 25 degC
*   Inductor Frequency Model
*   Use model for Frequency Domain simulations
*======================================================================
.subckt XFL4012-121_freq port1 port2 PARAMS: Cpar=4.6pF Ind=0.12uH
X1 port1 port2 Model1A PARAMS:
+ R1=19
+ R2=0.005
+ C= {Cpar}
+ K1=0.000005
+ K2=0.017
+ K3= {Ind}
+ K4=0.000001
+ K5=0.000003
+ L=1.2463E-07
+ Is=17.7857663
+ a=1.11930875
+ L_Z0=0
+ L_EL=0
+ L_F0=0E6
+ PkZ=210.930663
.ends XFL4012-121_freq

*======================================================================
* SPICE Model generated by Coilcraft
* Coilcraft Part Number : XFL4012-121
* Inductance = 0.12uH
*======================================================================
* Model Parameters:
*   Valid Frequency Range = 0.1MHz-500MHz
*   Ambient Temperature = 25 degC
*   Inductor Saturation Model
*   Use model for Time Domain simulations
*======================================================================
.subckt XFL4012-121_sat port1 port2 PARAMS: Cpar=4.60pF Ind=0.12uH
X1 port1 port2 Model1C PARAMS:
+ R1=19
+ R2=0.005
+ C= {Cpar}
+ K1=0.000005
+ K2=0.017
+ K3= {Ind}
+ K4=0.000001
+ K5=0.000003
+ L=1.2463E-07
+ Is=17.7857663
+ a=1.11930875
+ L_Z0=0
+ L_EL=0
+ L_F0=0E6
+ PkZ=210.930663
.ends XFL4012-121_sat

*======================================================================
* SPICE Model generated by Coilcraft
* Coilcraft Part Number : XFL4012-251
* Inductance = 0.25uH
*======================================================================
* Model Parameters:
*   Valid Frequency Range = 0.1MHz-500MHz
*   Ambient Temperature = 25 degC
*   Inductor Frequency Model
*   Use model for Frequency Domain simulations
*======================================================================
.subckt XFL4012-251_freq port1 port2 PARAMS: Cpar=5.8pF Ind=0.25uH
X1 port1 port2 Model1A PARAMS:
+ R1=17
+ R2=0.008
+ C= {Cpar}
+ K1=0.000019
+ K2=0.039
+ K3= {Ind}
+ K4=0.00004
+ K5=0.000002
+ L=2.5024E-07
+ Is=14.427877
+ a=1.00862631
+ L_Z0=0
+ L_EL=0
+ L_F0=0E6
+ PkZ=380.639415
.ends XFL4012-251_freq

*======================================================================
* SPICE Model generated by Coilcraft
* Coilcraft Part Number : XFL4012-251
* Inductance = 0.25uH
*======================================================================
* Model Parameters:
*   Valid Frequency Range = 0.1MHz-500MHz
*   Ambient Temperature = 25 degC
*   Inductor Saturation Model
*   Use model for Time Domain simulations
*======================================================================
.subckt XFL4012-251_sat port1 port2 PARAMS: Cpar=5.79pF Ind=0.25uH
X1 port1 port2 Model1C PARAMS:
+ R1=17
+ R2=0.008
+ C= {Cpar}
+ K1=0.000019
+ K2=0.039
+ K3= {Ind}
+ K4=0.00004
+ K5=0.000002
+ L=2.5024E-07
+ Is=14.427877
+ a=1.00862631
+ L_Z0=0
+ L_EL=0
+ L_F0=0E6
+ PkZ=380.639415
.ends XFL4012-251_sat

*======================================================================
* SPICE Model generated by Coilcraft
* Coilcraft Part Number : XFL4012-471
* Inductance = 0.47uH
*======================================================================
* Model Parameters:
*   Valid Frequency Range = 0.1MHz-500MHz
*   Ambient Temperature = 25 degC
*   Inductor Frequency Model
*   Use model for Frequency Domain simulations
*======================================================================
.subckt XFL4012-471_freq port1 port2 PARAMS: Cpar=6.2pF Ind=0.47uH
X1 port1 port2 Model1A PARAMS:
+ R1=13
+ R2=0.014
+ C= {Cpar}
+ K1=0.000035
+ K2=0.075
+ K3= {Ind}
+ K4=0.000002
+ K5=0.00000001
+ L=4.6349E-07
+ Is=11.2918466
+ a=0.97140554
+ L_Z0=0
+ L_EL=0
+ L_F0=0E6
+ PkZ=642.50111
.ends XFL4012-471_freq

*======================================================================
* SPICE Model generated by Coilcraft
* Coilcraft Part Number : XFL4012-471
* Inductance = 0.47uH
*======================================================================
* Model Parameters:
*   Valid Frequency Range = 0.1MHz-500MHz
*   Ambient Temperature = 25 degC
*   Inductor Saturation Model
*   Use model for Time Domain simulations
*======================================================================
.subckt XFL4012-471_sat port1 port2 PARAMS: Cpar=6.20pF Ind=0.47uH
X1 port1 port2 Model1C PARAMS:
+ R1=13
+ R2=0.014
+ C= {Cpar}
+ K1=0.000035
+ K2=0.075
+ K3= {Ind}
+ K4=0.000002
+ K5=0.00000001
+ L=4.6349E-07
+ Is=11.2918466
+ a=0.97140554
+ L_Z0=0
+ L_EL=0
+ L_F0=0E6
+ PkZ=642.50111
.ends XFL4012-471_sat

*======================================================================
* SPICE Model generated by Coilcraft
* Coilcraft Part Number : XFL4012-601
* Inductance = 0.6uH
*======================================================================
* Model Parameters:
*   Valid Frequency Range = 0.1MHz-500MHz
*   Ambient Temperature = 25 degC
*   Inductor Frequency Model
*   Use model for Frequency Domain simulations
*======================================================================
.subckt XFL4012-601_freq port1 port2 PARAMS: Cpar=5.3pF Ind=0.6uH
X1 port1 port2 Model1A PARAMS:
+ R1=15
+ R2=0.017
+ C= {Cpar}
+ K1=0.000115
+ K2=0.105
+ K3= {Ind}
+ K4=0.004
+ K5=0.000008
+ L=5.7813E-07
+ Is=13.0440533
+ a=0.75309113
+ L_Z0=0
+ L_EL=0
+ L_F0=0E6
+ PkZ=873.122046
.ends XFL4012-601_freq

*======================================================================
* SPICE Model generated by Coilcraft
* Coilcraft Part Number : XFL4012-601
* Inductance = 0.6uH
*======================================================================
* Model Parameters:
*   Valid Frequency Range = 0.1MHz-500MHz
*   Ambient Temperature = 25 degC
*   Inductor Saturation Model
*   Use model for Time Domain simulations
*======================================================================
.subckt XFL4012-601_sat port1 port2 PARAMS: Cpar=5.07pF Ind=0.6uH
X1 port1 port2 Model1C PARAMS:
+ R1=15
+ R2=0.017
+ C= {Cpar}
+ K1=0.000115
+ K2=0.105
+ K3= {Ind}
+ K4=0.004
+ K5=0.000008
+ L=5.7813E-07
+ Is=13.0440533
+ a=0.75309113
+ L_Z0=0
+ L_EL=0
+ L_F0=0E6
+ PkZ=873.122046
.ends XFL4012-601_sat

*======================================================================
* SPICE Model generated by Coilcraft
* Coilcraft Saturation Inductor Model
*======================================================================
* Model Parameters:
*   Valid Frequency Range Varies by Inductor
*   Ambient Temperature = 25 degC
*   Current Saturable Inductor Model
*======================================================================
.subckt Model1C Lin Lout PARAMS:
+ R1=1
+ R2=1
+ C=1
+ L=1
+ Is=1
+ a=1
+ PkZ=94.2 * {L} *1e6
R2 N001 Lin {R2}
R3 Lout N001 {PkZ}
C1 N002 N001 {C}
R1 Lout N002 {R1}
E1 N003 N001 N004 0 1
G1 0 N004 VALUE={{L*Is}*tanh((I(E1)/{Is})**{a})**{1/a}}
L1 N004 0 1
E2 N003 Lout N005 0 1
G2 0 N005 VALUE={{L*Is}*tanh((I(E2)/{Is})**{a})**{1/a}}
L2 N005 0 1
.ends Model1C
*======================================================================
* SPICE Model generated by Coilcraft
* Coilcraft Power Inductor Model
*======================================================================
* Model Parameters:
*   Valid Frequency Range Varies by Inductor
*   Ambient Temperature = 25 degC
*   DC Bias Current = 0 A
*   Frequency Dependent Inductor Model
*======================================================================
.subckt Model1A Lin Lout PARAMS:
+ R1=1
+ R2=1
+ C=1
+ K1=1
+ K2=1
+ K3=1
+ K4=1
+ K5=1
R2 N001 Lin {R2}
R1 Lout N002 {R1}
C1 N002 N001 {C}
G_Rvar2 N001 Lout LAPLACE { V(N001, Lout) } {1/K2/(-S*S/4/PI^2)^0.25}
G_Rvar1 N001 N003 LAPLACE { V(N001, N003) } {1/K1/(-S*S/4/PI^2)^0.25}
G_Lvar N003 Lout  LAPLACE { V(N003, Lout) } {1/(S*1e-6*({K3*1e6}-({K4}*LOG({K5}*(sqrt(-S*S)/(2*pi))))))}
*This large resistance to ground has been added to prevent a floating node error
R3 N003 0 100Meg
.ends Model1A


.subckt Coilcraft_Inductor Lin Lout
R1 Lout Lin 100Meg
.ends Coilcraft_Inductor
