*======================================================================
* SPICE Model generated by Coilcraft
* Coilcraft Part Number : XFL4020-102
* Inductance = 1uH
*======================================================================
* Model Parameters:
*   Valid Frequency Range = 0.1MHz-100MHz
*   Ambient Temperature = 25 degC
*   Inductor Frequency Model
*   Use model for Frequency Domain simulations
*======================================================================
.subckt XFL4020-102_freq port1 port2 PARAMS: Cpar=5.79pF Ind=1uH
X1 port1 port2 Model1A PARAMS:
+ R1=50
+ R2=0.0108
+ C= {Cpar}
+ K1=0.00014
+ K2=0.32
+ K3= {Ind}
+ K4=0.014
+ K5=0.0000092
+ L=9.5675E-07
+ Is=5.2744124
+ a=2.22308133
+ L_Z0=0
+ L_EL=0
+ L_F0=0E6
+ PkZ=1434.66021
.ends XFL4020-102_freq

*======================================================================
* SPICE Model generated by Coilcraft
* Coilcraft Part Number : XFL4020-102
* Inductance = 1uH
*======================================================================
* Model Parameters:
*   Valid Frequency Range = 0.1MHz-100MHz
*   Ambient Temperature = 25 degC
*   Inductor Saturation Model
*   Use model for Time Domain simulations
*======================================================================
.subckt XFL4020-102_sat port1 port2 PARAMS: Cpar=5.27pF Ind=1uH
X1 port1 port2 Model1C PARAMS:
+ R1=50
+ R2=0.0108
+ C= {Cpar}
+ K1=0.00014
+ K2=0.32
+ K3= {Ind}
+ K4=0.014
+ K5=0.0000092
+ L=9.5675E-07
+ Is=5.2744124
+ a=2.22308133
+ L_Z0=0
+ L_EL=0
+ L_F0=0E6
+ PkZ=1434.66021
.ends XFL4020-102_sat

*======================================================================
* SPICE Model generated by Coilcraft
* Coilcraft Part Number : XFL4020-152
* Inductance = 1.5uH
*======================================================================
* Model Parameters:
*   Valid Frequency Range = 0.1MHz-80MHz
*   Ambient Temperature = 25 degC
*   Inductor Frequency Model
*   Use model for Frequency Domain simulations
*======================================================================
.subckt XFL4020-152_freq port1 port2 PARAMS: Cpar=4.93pF Ind=1.5uH
X1 port1 port2 Model1A PARAMS:
+ R1=52
+ R2=0.0144
+ C= {Cpar}
+ K1=0.0002
+ K2=0.38
+ K3= {Ind}
+ K4=0.024
+ K5=0.0000092
+ L=1.4158E-06
+ Is=4.72614123
+ a=2.71819268
+ L_Z0=0
+ L_EL=0
+ L_F0=0E6
+ PkZ=1889.29158
.ends XFL4020-152_freq

*======================================================================
* SPICE Model generated by Coilcraft
* Coilcraft Part Number : XFL4020-152
* Inductance = 1.5uH
*======================================================================
* Model Parameters:
*   Valid Frequency Range = 0.1MHz-80MHz
*   Ambient Temperature = 25 degC
*   Inductor Saturation Model
*   Use model for Time Domain simulations
*======================================================================
.subckt XFL4020-152_sat port1 port2 PARAMS: Cpar=4.43pF Ind=1.5uH
X1 port1 port2 Model1C PARAMS:
+ R1=52
+ R2=0.0144
+ C= {Cpar}
+ K1=0.0002
+ K2=0.38
+ K3= {Ind}
+ K4=0.024
+ K5=0.0000092
+ L=1.4158E-06
+ Is=4.72614123
+ a=2.71819268
+ L_Z0=0
+ L_EL=0
+ L_F0=0E6
+ PkZ=1889.29158
.ends XFL4020-152_sat

*======================================================================
* SPICE Model generated by Coilcraft
* Coilcraft Part Number : XFL4020-222
* Inductance = 2.2uH
*======================================================================
* Model Parameters:
*   Valid Frequency Range = 0.1MHz-80MHz
*   Ambient Temperature = 25 degC
*   Inductor Frequency Model
*   Use model for Frequency Domain simulations
*======================================================================
.subckt XFL4020-222_freq port1 port2 PARAMS: Cpar=5.23pF Ind=2.2uH
X1 port1 port2 Model1A PARAMS:
+ R1=50
+ R2=0.02135
+ C= {Cpar}
+ K1=0.0003
+ K2=0.6
+ K3= {Ind}
+ K4=0.038
+ K5=0.0000095
+ L=2.1263E-06
+ Is=3.97550777
+ a=2.88499912
+ L_Z0=0
+ L_EL=0
+ L_F0=0E6
+ PkZ=2670.55699
.ends XFL4020-222_freq

*======================================================================
* SPICE Model generated by Coilcraft
* Coilcraft Part Number : XFL4020-222
* Inductance = 2.2uH
*======================================================================
* Model Parameters:
*   Valid Frequency Range = 0.1MHz-80MHz
*   Ambient Temperature = 25 degC
*   Inductor Saturation Model
*   Use model for Time Domain simulations
*======================================================================
.subckt XFL4020-222_sat port1 port2 PARAMS: Cpar=4.68pF Ind=2.2uH
X1 port1 port2 Model1C PARAMS:
+ R1=50
+ R2=0.02135
+ C= {Cpar}
+ K1=0.0003
+ K2=0.6
+ K3= {Ind}
+ K4=0.038
+ K5=0.0000095
+ L=2.1263E-06
+ Is=3.97550777
+ a=2.88499912
+ L_Z0=0
+ L_EL=0
+ L_F0=0E6
+ PkZ=2670.55699
.ends XFL4020-222_sat

*======================================================================
* SPICE Model generated by Coilcraft
* Coilcraft Part Number : XFL4020-332
* Inductance = 3.3uH
*======================================================================
* Model Parameters:
*   Valid Frequency Range = 0.1MHz-60MHz
*   Ambient Temperature = 25 degC
*   Inductor Frequency Model
*   Use model for Frequency Domain simulations
*======================================================================
.subckt XFL4020-332_freq port1 port2 PARAMS: Cpar=5.5pF Ind=3.3uH
X1 port1 port2 Model1A PARAMS:
+ R1=50
+ R2=0.0348
+ C= {Cpar}
+ K1=0.00028
+ K2=1.1
+ K3= {Ind}
+ K4=0.044
+ K5=0.0000095
+ L=3.2873E-06
+ Is=3.48363625
+ a=2.54894594
+ L_Z0=0
+ L_EL=0
+ L_F0=0E6
+ PkZ=4184.13381
.ends XFL4020-332_freq

*======================================================================
* SPICE Model generated by Coilcraft
* Coilcraft Part Number : XFL4020-332
* Inductance = 3.3uH
*======================================================================
* Model Parameters:
*   Valid Frequency Range = 0.1MHz-60MHz
*   Ambient Temperature = 25 degC
*   Inductor Saturation Model
*   Use model for Time Domain simulations
*======================================================================
.subckt XFL4020-332_sat port1 port2 PARAMS: Cpar=5.07pF Ind=3.3uH
X1 port1 port2 Model1C PARAMS:
+ R1=50
+ R2=0.0348
+ C= {Cpar}
+ K1=0.00028
+ K2=1.1
+ K3= {Ind}
+ K4=0.044
+ K5=0.0000095
+ L=3.2873E-06
+ Is=3.48363625
+ a=2.54894594
+ L_Z0=0
+ L_EL=0
+ L_F0=0E6
+ PkZ=4184.13381
.ends XFL4020-332_sat

*======================================================================
* SPICE Model generated by Coilcraft
* Coilcraft Part Number : XFL4020-472
* Inductance = 4.7uH
*======================================================================
* Model Parameters:
*   Valid Frequency Range = 0.1MHz-50MHz
*   Ambient Temperature = 25 degC
*   Inductor Frequency Model
*   Use model for Frequency Domain simulations
*======================================================================
.subckt XFL4020-472_freq port1 port2 PARAMS: Cpar=6.02pF Ind=4.7uH
X1 port1 port2 Model1A PARAMS:
+ R1=55
+ R2=0.0522
+ C= {Cpar}
+ K1=0.00012
+ K2=1.5
+ K3= {Ind}
+ K4=0.07
+ K5=0.0000099
+ L=4.4277E-06
+ Is=3.20042817
+ a=1.92049437
+ L_Z0=0
+ L_EL=0
+ L_F0=0E6
+ PkZ=5079.24328
.ends XFL4020-472_freq

*======================================================================
* SPICE Model generated by Coilcraft
* Coilcraft Part Number : XFL4020-472
* Inductance = 4.7uH
*======================================================================
* Model Parameters:
*   Valid Frequency Range = 0.1MHz-50MHz
*   Ambient Temperature = 25 degC
*   Inductor Saturation Model
*   Use model for Time Domain simulations
*======================================================================
.subckt XFL4020-472_sat port1 port2 PARAMS: Cpar=5.51pF Ind=4.7uH
X1 port1 port2 Model1C PARAMS:
+ R1=55
+ R2=0.0522
+ C= {Cpar}
+ K1=0.00012
+ K2=1.5
+ K3= {Ind}
+ K4=0.07
+ K5=0.0000099
+ L=4.4277E-06
+ Is=3.20042817
+ a=1.92049437
+ L_Z0=0
+ L_EL=0
+ L_F0=0E6
+ PkZ=5079.24328
.ends XFL4020-472_sat

*======================================================================
* SPICE Model generated by Coilcraft
* Coilcraft Saturation Inductor Model
*======================================================================
* Model Parameters:
*   Valid Frequency Range Varies by Inductor
*   Ambient Temperature = 25 degC
*   Current Saturable Inductor Model
*======================================================================
.subckt Model1C Lin Lout PARAMS:
+ R1=1
+ R2=1
+ C=1
+ L=1
+ Is=1
+ a=1
+ PkZ=94.2 * {L} *1e6
R2 N001 Lin {R2}
R3 Lout N001 {PkZ}
C1 N002 N001 {C}
R1 Lout N002 {R1}
E1 N003 N001 N004 0 1
G1 0 N004 VALUE={{L*Is}*tanh((I(E1)/{Is})**{a})**{1/a}}
L1 N004 0 1
E2 N003 Lout N005 0 1
G2 0 N005 VALUE={{L*Is}*tanh((I(E2)/{Is})**{a})**{1/a}}
L2 N005 0 1
.ends Model1C
*======================================================================
* SPICE Model generated by Coilcraft
* Coilcraft Power Inductor Model
*======================================================================
* Model Parameters:
*   Valid Frequency Range Varies by Inductor
*   Ambient Temperature = 25 degC
*   DC Bias Current = 0 A
*   Frequency Dependent Inductor Model
*======================================================================
.subckt Model1A Lin Lout PARAMS:
+ R1=1
+ R2=1
+ C=1
+ K1=1
+ K2=1
+ K3=1
+ K4=1
+ K5=1
R2 N001 Lin {R2}
R1 Lout N002 {R1}
C1 N002 N001 {C}
G_Rvar2 N001 Lout LAPLACE { V(N001, Lout) } {1/K2/(-S*S/4/PI^2)^0.25}
G_Rvar1 N001 N003 LAPLACE { V(N001, N003) } {1/K1/(-S*S/4/PI^2)^0.25}
G_Lvar N003 Lout  LAPLACE { V(N003, Lout) } {1/(S*1e-6*({K3*1e6}-({K4}*LOG({K5}*(sqrt(-S*S)/(2*pi))))))}
*This large resistance to ground has been added to prevent a floating node error
R3 N003 0 100Meg
.ends Model1A


.subckt Coilcraft_Inductor Lin Lout
R1 Lout Lin 100Meg
.ends Coilcraft_Inductor
