*======================================================================
* SPICE Model generated by Coilcraft
* Coilcraft Part Number : XFL4015-181
* Inductance = 0.18uH
*======================================================================
* Model Parameters:
*   Valid Frequency Range = 0.1MHz-300MHz
*   Ambient Temperature = 25 degC
*   Inductor Frequency Model
*   Use model for Frequency Domain simulations
*======================================================================
.subckt XFL4015-181_freq port1 port2 PARAMS: Cpar=4.7pF Ind=0.18uH
X1 port1 port2 Model1A PARAMS:
+ R1=45
+ R2=0.0042
+ C= {Cpar}
+ K1=0.000015
+ K2=0.021
+ K3= {Ind}
+ K4=0.00001
+ K5=0.0000755
+ L=1.5944E-07
+ Is=12.0336393
+ a=3.04969352
+ L_Z0=0
+ L_EL=0
+ L_F0=0E6
+ PkZ=210.609526
.ends XFL4015-181_freq

*======================================================================
* SPICE Model generated by Coilcraft
* Coilcraft Part Number : XFL4015-181
* Inductance = 0.18uH
*======================================================================
* Model Parameters:
*   Valid Frequency Range = 0.1MHz-300MHz
*   Ambient Temperature = 25 degC
*   Inductor Saturation Model
*   Use model for Time Domain simulations
*======================================================================
.subckt XFL4015-181_sat port1 port2 PARAMS: Cpar=4.70pF Ind=0.18uH
X1 port1 port2 Model1C PARAMS:
+ R1=45
+ R2=0.0042
+ C= {Cpar}
+ K1=0.000015
+ K2=0.021
+ K3= {Ind}
+ K4=0.00001
+ K5=0.0000755
+ L=1.5944E-07
+ Is=12.0336393
+ a=3.04969352
+ L_Z0=0
+ L_EL=0
+ L_F0=0E6
+ PkZ=210.609526
.ends XFL4015-181_sat

*======================================================================
* SPICE Model generated by Coilcraft
* Coilcraft Part Number : XFL4015-331
* Inductance = 0.33uH
*======================================================================
* Model Parameters:
*   Valid Frequency Range = 0.1MHz-500MHz
*   Ambient Temperature = 25 degC
*   Inductor Frequency Model
*   Use model for Frequency Domain simulations
*======================================================================
.subckt XFL4015-331_freq port1 port2 PARAMS: Cpar=5pF Ind=0.33uH
X1 port1 port2 Model1A PARAMS:
+ R1=18
+ R2=0.0068
+ C= {Cpar}
+ K1=0.000056
+ K2=0.039
+ K3= {Ind}
+ K4=0.0001
+ K5=2.2E-08
+ L=3.1869E-07
+ Is=10.0607081
+ a=2.18057848
+ L_Z0=0
+ L_EL=0
+ L_F0=0E6
+ PkZ=386.949351
.ends XFL4015-331_freq

*======================================================================
* SPICE Model generated by Coilcraft
* Coilcraft Part Number : XFL4015-331
* Inductance = 0.33uH
*======================================================================
* Model Parameters:
*   Valid Frequency Range = 0.1MHz-500MHz
*   Ambient Temperature = 25 degC
*   Inductor Saturation Model
*   Use model for Time Domain simulations
*======================================================================
.subckt XFL4015-331_sat port1 port2 PARAMS: Cpar=5.00pF Ind=0.33uH
X1 port1 port2 Model1C PARAMS:
+ R1=18
+ R2=0.0068
+ C= {Cpar}
+ K1=0.000056
+ K2=0.039
+ K3= {Ind}
+ K4=0.0001
+ K5=2.2E-08
+ L=3.1869E-07
+ Is=10.0607081
+ a=2.18057848
+ L_Z0=0
+ L_EL=0
+ L_F0=0E6
+ PkZ=386.949351
.ends XFL4015-331_sat

*======================================================================
* SPICE Model generated by Coilcraft
* Coilcraft Part Number : XFL4015-471
* Inductance = 0.47uH
*======================================================================
* Model Parameters:
*   Valid Frequency Range = 0.1MHz-500MHz
*   Ambient Temperature = 25 degC
*   Inductor Frequency Model
*   Use model for Frequency Domain simulations
*======================================================================
.subckt XFL4015-471_freq port1 port2 PARAMS: Cpar=5pF Ind=0.47uH
X1 port1 port2 Model1A PARAMS:
+ R1=15
+ R2=0.0076
+ C= {Cpar}
+ K1=0.00014
+ K2=0.071
+ K3= {Ind}
+ K4=0.00049
+ K5=2.65E-07
+ L=4.902E-07
+ Is=9.74804829
+ a=1.39018217
+ L_Z0=0
+ L_EL=0
+ L_F0=0E6
+ PkZ=642.641127
.ends XFL4015-471_freq

*======================================================================
* SPICE Model generated by Coilcraft
* Coilcraft Part Number : XFL4015-471
* Inductance = 0.47uH
*======================================================================
* Model Parameters:
*   Valid Frequency Range = 0.1MHz-500MHz
*   Ambient Temperature = 25 degC
*   Inductor Saturation Model
*   Use model for Time Domain simulations
*======================================================================
.subckt XFL4015-471_sat port1 port2 PARAMS: Cpar=4.98pF Ind=0.47uH
X1 port1 port2 Model1C PARAMS:
+ R1=15
+ R2=0.0076
+ C= {Cpar}
+ K1=0.00014
+ K2=0.071
+ K3= {Ind}
+ K4=0.00049
+ K5=2.65E-07
+ L=4.902E-07
+ Is=9.74804829
+ a=1.39018217
+ L_Z0=0
+ L_EL=0
+ L_F0=0E6
+ PkZ=642.641127
.ends XFL4015-471_sat

*======================================================================
* SPICE Model generated by Coilcraft
* Coilcraft Part Number : XFL4015-701
* Inductance = 0.7uH
*======================================================================
* Model Parameters:
*   Valid Frequency Range = 0.1MHz-500MHz
*   Ambient Temperature = 25 degC
*   Inductor Frequency Model
*   Use model for Frequency Domain simulations
*======================================================================
.subckt XFL4015-701_freq port1 port2 PARAMS: Cpar=5.9pF Ind=0.7uH
X1 port1 port2 Model1A PARAMS:
+ R1=13
+ R2=0.0095
+ C= {Cpar}
+ K1=0.0001
+ K2=0.11
+ K3= {Ind}
+ K4=0.0045
+ K5=0.0000075
+ L=6.8707E-07
+ Is=7.458348
+ a=2.76478832
+ L_Z0=0
+ L_EL=0
+ L_F0=0E6
+ PkZ=878.331056
.ends XFL4015-701_freq

*======================================================================
* SPICE Model generated by Coilcraft
* Coilcraft Part Number : XFL4015-701
* Inductance = 0.7uH
*======================================================================
* Model Parameters:
*   Valid Frequency Range = 0.1MHz-500MHz
*   Ambient Temperature = 25 degC
*   Inductor Saturation Model
*   Use model for Time Domain simulations
*======================================================================
.subckt XFL4015-701_sat port1 port2 PARAMS: Cpar=5.66pF Ind=0.7uH
X1 port1 port2 Model1C PARAMS:
+ R1=13
+ R2=0.0095
+ C= {Cpar}
+ K1=0.0001
+ K2=0.11
+ K3= {Ind}
+ K4=0.0045
+ K5=0.0000075
+ L=6.8707E-07
+ Is=7.458348
+ a=2.76478832
+ L_Z0=0
+ L_EL=0
+ L_F0=0E6
+ PkZ=878.331056
.ends XFL4015-701_sat

*======================================================================
* SPICE Model generated by Coilcraft
* Coilcraft Part Number : XFL4015-122
* Inductance = 1.2uH
*======================================================================
* Model Parameters:
*   Valid Frequency Range = 0.1MHz-500MHz
*   Ambient Temperature = 25 degC
*   Inductor Frequency Model
*   Use model for Frequency Domain simulations
*======================================================================
.subckt XFL4015-122_freq port1 port2 PARAMS: Cpar=4.7pF Ind=1.2uH
X1 port1 port2 Model1A PARAMS:
+ R1=15
+ R2=0.0188
+ C= {Cpar}
+ K1=0.00017
+ K2=0.2
+ K3= {Ind}
+ K4=0.0066
+ K5=0.0000074
+ L=1.1494E-06
+ Is=5.64113413
+ a=2.05744386
+ L_Z0=0
+ L_EL=0
+ L_F0=0E6
+ PkZ=1488.20236
.ends XFL4015-122_freq

*======================================================================
* SPICE Model generated by Coilcraft
* Coilcraft Part Number : XFL4015-122
* Inductance = 1.2uH
*======================================================================
* Model Parameters:
*   Valid Frequency Range = 0.1MHz-500MHz
*   Ambient Temperature = 25 degC
*   Inductor Saturation Model
*   Use model for Time Domain simulations
*======================================================================
.subckt XFL4015-122_sat port1 port2 PARAMS: Cpar=4.54pF Ind=1.2uH
X1 port1 port2 Model1C PARAMS:
+ R1=15
+ R2=0.0188
+ C= {Cpar}
+ K1=0.00017
+ K2=0.2
+ K3= {Ind}
+ K4=0.0066
+ K5=0.0000074
+ L=1.1494E-06
+ Is=5.64113413
+ a=2.05744386
+ L_Z0=0
+ L_EL=0
+ L_F0=0E6
+ PkZ=1488.20236
.ends XFL4015-122_sat

*======================================================================
* SPICE Model generated by Coilcraft
* Coilcraft Saturation Inductor Model
*======================================================================
* Model Parameters:
*   Valid Frequency Range Varies by Inductor
*   Ambient Temperature = 25 degC
*   Current Saturable Inductor Model
*======================================================================
.subckt Model1C Lin Lout PARAMS:
+ R1=1
+ R2=1
+ C=1
+ L=1
+ Is=1
+ a=1
+ PkZ=94.2 * {L} *1e6
R2 N001 Lin {R2}
R3 Lout N001 {PkZ}
C1 N002 N001 {C}
R1 Lout N002 {R1}
E1 N003 N001 N004 0 1
G1 0 N004 VALUE={{L*Is}*tanh((I(E1)/{Is})**{a})**{1/a}}
L1 N004 0 1
E2 N003 Lout N005 0 1
G2 0 N005 VALUE={{L*Is}*tanh((I(E2)/{Is})**{a})**{1/a}}
L2 N005 0 1
.ends Model1C
*======================================================================
* SPICE Model generated by Coilcraft
* Coilcraft Power Inductor Model
*======================================================================
* Model Parameters:
*   Valid Frequency Range Varies by Inductor
*   Ambient Temperature = 25 degC
*   DC Bias Current = 0 A
*   Frequency Dependent Inductor Model
*======================================================================
.subckt Model1A Lin Lout PARAMS:
+ R1=1
+ R2=1
+ C=1
+ K1=1
+ K2=1
+ K3=1
+ K4=1
+ K5=1
R2 N001 Lin {R2}
R1 Lout N002 {R1}
C1 N002 N001 {C}
G_Rvar2 N001 Lout LAPLACE { V(N001, Lout) } {1/K2/(-S*S/4/PI^2)^0.25}
G_Rvar1 N001 N003 LAPLACE { V(N001, N003) } {1/K1/(-S*S/4/PI^2)^0.25}
G_Lvar N003 Lout  LAPLACE { V(N003, Lout) } {1/(S*1e-6*({K3*1e6}-({K4}*LOG({K5}*(sqrt(-S*S)/(2*pi))))))}
*This large resistance to ground has been added to prevent a floating node error
R3 N003 0 100Meg
.ends Model1A


.subckt Coilcraft_Inductor Lin Lout
R1 Lout Lin 100Meg
.ends Coilcraft_Inductor
