*======================================================================
* SPICE Model generated by Coilcraft
* Coilcraft Part Number : XGL4020-331
* Inductance = 0.33uH
*======================================================================
* Model Parameters:
*   Valid Frequency Range = 0.1MHz-120MHz
*   Ambient Temperature = 25 degC
*   Inductor Frequency Model
*   Use model for Frequency Domain simulations
*======================================================================
.subckt XGL4020-331_freq port1 port2 PARAMS: Cpar=6.5pF Ind=0.33uH
X1 port1 port2 Model1A PARAMS:
+ R1=24.16
+ R2=0.003
+ C= {Cpar}
+ K1=0.000001
+ K2=0.071
+ K3= {Ind}
+ K4=0.00069
+ K5=0.000001
+ L=3.3122E-07
+ Is=34.8690347
+ a=0.60803304
+ L_Z0=0
+ L_EL=0
+ L_F0=0E6
+ PkZ=548.314436
.ends XGL4020-331_freq

*======================================================================
* SPICE Model generated by Coilcraft
* Coilcraft Part Number : XGL4020-331
* Inductance = 0.33uH
*======================================================================
* Model Parameters:
*   Valid Frequency Range = 0.1MHz-120MHz
*   Ambient Temperature = 25 degC
*   Inductor Saturation Model
*   Use model for Time Domain simulations
*======================================================================
.subckt XGL4020-331_sat port1 port2 PARAMS: Cpar=6.44pF Ind=0.33uH
X1 port1 port2 Model1C PARAMS:
+ R1=24.16
+ R2=0.003
+ C= {Cpar}
+ K1=0.000001
+ K2=0.071
+ K3= {Ind}
+ K4=0.00069
+ K5=0.000001
+ L=3.3122E-07
+ Is=34.8690347
+ a=0.60803304
+ L_Z0=0
+ L_EL=0
+ L_F0=0E6
+ PkZ=548.314436
.ends XGL4020-331_sat

*======================================================================
* SPICE Model generated by Coilcraft
* Coilcraft Part Number : XGL4020-471
* Inductance = 0.47uH
*======================================================================
* Model Parameters:
*   Valid Frequency Range = 0.1MHz-120MHz
*   Ambient Temperature = 25 degC
*   Inductor Frequency Model
*   Use model for Frequency Domain simulations
*======================================================================
.subckt XGL4020-471_freq port1 port2 PARAMS: Cpar=6.2pF Ind=0.47uH
X1 port1 port2 Model1A PARAMS:
+ R1=20.4
+ R2=0.0042
+ C= {Cpar}
+ K1=0.000001
+ K2=0.089
+ K3= {Ind}
+ K4=0.0012
+ K5=0.063
+ L=4.5995E-07
+ Is=26.0397511
+ a=0.73129618
+ L_Z0=0
+ L_EL=0
+ L_F0=0E6
+ PkZ=698.887365
.ends XGL4020-471_freq

*======================================================================
* SPICE Model generated by Coilcraft
* Coilcraft Part Number : XGL4020-471
* Inductance = 0.47uH
*======================================================================
* Model Parameters:
*   Valid Frequency Range = 0.1MHz-120MHz
*   Ambient Temperature = 25 degC
*   Inductor Saturation Model
*   Use model for Time Domain simulations
*======================================================================
.subckt XGL4020-471_sat port1 port2 PARAMS: Cpar=5.95pF Ind=0.47uH
X1 port1 port2 Model1C PARAMS:
+ R1=20.4
+ R2=0.0042
+ C= {Cpar}
+ K1=0.000001
+ K2=0.089
+ K3= {Ind}
+ K4=0.0012
+ K5=0.063
+ L=4.5995E-07
+ Is=26.0397511
+ a=0.73129618
+ L_Z0=0
+ L_EL=0
+ L_F0=0E6
+ PkZ=698.887365
.ends XGL4020-471_sat

*======================================================================
* SPICE Model generated by Coilcraft
* Coilcraft Part Number : XGL4020-601
* Inductance = 0.6uH
*======================================================================
* Model Parameters:
*   Valid Frequency Range = 0.1MHz-100MHz
*   Ambient Temperature = 25 degC
*   Inductor Frequency Model
*   Use model for Frequency Domain simulations
*======================================================================
.subckt XGL4020-601_freq port1 port2 PARAMS: Cpar=6pF Ind=0.6uH
X1 port1 port2 Model1A PARAMS:
+ R1=46.9
+ R2=0.0051
+ C= {Cpar}
+ K1=0.000001
+ K2=0.132
+ K3= {Ind}
+ K4=0.0024
+ K5=0.0006
+ L=5.7657E-07
+ Is=26.2792907
+ a=0.63663421
+ L_Z0=0
+ L_EL=0
+ L_F0=0E6
+ PkZ=769.580318
.ends XGL4020-601_freq

*======================================================================
* SPICE Model generated by Coilcraft
* Coilcraft Part Number : XGL4020-601
* Inductance = 0.6uH
*======================================================================
* Model Parameters:
*   Valid Frequency Range = 0.1MHz-100MHz
*   Ambient Temperature = 25 degC
*   Inductor Saturation Model
*   Use model for Time Domain simulations
*======================================================================
.subckt XGL4020-601_sat port1 port2 PARAMS: Cpar=5.74pF Ind=0.6uH
X1 port1 port2 Model1C PARAMS:
+ R1=46.9
+ R2=0.0051
+ C= {Cpar}
+ K1=0.000001
+ K2=0.132
+ K3= {Ind}
+ K4=0.0024
+ K5=0.0006
+ L=5.7657E-07
+ Is=26.2792907
+ a=0.63663421
+ L_Z0=0
+ L_EL=0
+ L_F0=0E6
+ PkZ=769.580318
.ends XGL4020-601_sat

*======================================================================
* SPICE Model generated by Coilcraft
* Coilcraft Part Number : XGL4020-821
* Inductance = 0.82uH
*======================================================================
* Model Parameters:
*   Valid Frequency Range = 0.1MHz-90MHz
*   Ambient Temperature = 25 degC
*   Inductor Frequency Model
*   Use model for Frequency Domain simulations
*======================================================================
.subckt XGL4020-821_freq port1 port2 PARAMS: Cpar=6.3pF Ind=0.82uH
X1 port1 port2 Model1A PARAMS:
+ R1=16.7
+ R2=0.0077
+ C= {Cpar}
+ K1=0.000001
+ K2=0.177
+ K3= {Ind}
+ K4=0.000001
+ K5=0.000001
+ L=8.7506E-07
+ Is=20.5933879
+ a=0.65711444
+ L_Z0=0
+ L_EL=0
+ L_F0=0E6
+ PkZ=1244.91253
.ends XGL4020-821_freq

*======================================================================
* SPICE Model generated by Coilcraft
* Coilcraft Part Number : XGL4020-821
* Inductance = 0.82uH
*======================================================================
* Model Parameters:
*   Valid Frequency Range = 0.1MHz-90MHz
*   Ambient Temperature = 25 degC
*   Inductor Saturation Model
*   Use model for Time Domain simulations
*======================================================================
.subckt XGL4020-821_sat port1 port2 PARAMS: Cpar=6.30pF Ind=0.82uH
X1 port1 port2 Model1C PARAMS:
+ R1=16.7
+ R2=0.0077
+ C= {Cpar}
+ K1=0.000001
+ K2=0.177
+ K3= {Ind}
+ K4=0.000001
+ K5=0.000001
+ L=8.7506E-07
+ Is=20.5933879
+ a=0.65711444
+ L_Z0=0
+ L_EL=0
+ L_F0=0E6
+ PkZ=1244.91253
.ends XGL4020-821_sat

*======================================================================
* SPICE Model generated by Coilcraft
* Coilcraft Part Number : XGL4020-102
* Inductance = 1uH
*======================================================================
* Model Parameters:
*   Valid Frequency Range = 0.1MHz-80MHz
*   Ambient Temperature = 25 degC
*   Inductor Frequency Model
*   Use model for Frequency Domain simulations
*======================================================================
.subckt XGL4020-102_freq port1 port2 PARAMS: Cpar=6.87pF Ind=1uH
X1 port1 port2 Model1A PARAMS:
+ R1=33.7
+ R2=0.0082
+ C= {Cpar}
+ K1=0.000001
+ K2=0.236
+ K3= {Ind}
+ K4=0.009
+ K5=0.004
+ L=9.1581E-07
+ Is=18.7101134
+ a=0.68951353
+ L_Z0=0
+ L_EL=0
+ L_F0=0E6
+ PkZ=1271.07114
.ends XGL4020-102_freq

*======================================================================
* SPICE Model generated by Coilcraft
* Coilcraft Part Number : XGL4020-102
* Inductance = 1uH
*======================================================================
* Model Parameters:
*   Valid Frequency Range = 0.1MHz-80MHz
*   Ambient Temperature = 25 degC
*   Inductor Saturation Model
*   Use model for Time Domain simulations
*======================================================================
.subckt XGL4020-102_sat port1 port2 PARAMS: Cpar=6.10pF Ind=1uH
X1 port1 port2 Model1C PARAMS:
+ R1=33.7
+ R2=0.0082
+ C= {Cpar}
+ K1=0.000001
+ K2=0.236
+ K3= {Ind}
+ K4=0.009
+ K5=0.004
+ L=9.1581E-07
+ Is=18.7101134
+ a=0.68951353
+ L_Z0=0
+ L_EL=0
+ L_F0=0E6
+ PkZ=1271.07114
.ends XGL4020-102_sat

*======================================================================
* SPICE Model generated by Coilcraft
* Coilcraft Part Number : XGL4020-152
* Inductance = 1.5uH
*======================================================================
* Model Parameters:
*   Valid Frequency Range = 0.1MHz-60MHz
*   Ambient Temperature = 25 degC
*   Inductor Frequency Model
*   Use model for Frequency Domain simulations
*======================================================================
.subckt XGL4020-152_freq port1 port2 PARAMS: Cpar=7.82pF Ind=1.5uH
X1 port1 port2 Model1A PARAMS:
+ R1=30
+ R2=0.013
+ C= {Cpar}
+ K1=0.000001
+ K2=0.44
+ K3= {Ind}
+ K4=0.000001
+ K5=0.000001
+ L=1.5295E-06
+ Is=16.3201157
+ a=0.63439885
+ L_Z0=0
+ L_EL=0
+ L_F0=0E6
+ PkZ=2044.08901
.ends XGL4020-152_freq

*======================================================================
* SPICE Model generated by Coilcraft
* Coilcraft Part Number : XGL4020-152
* Inductance = 1.5uH
*======================================================================
* Model Parameters:
*   Valid Frequency Range = 0.1MHz-60MHz
*   Ambient Temperature = 25 degC
*   Inductor Saturation Model
*   Use model for Time Domain simulations
*======================================================================
.subckt XGL4020-152_sat port1 port2 PARAMS: Cpar=7.82pF Ind=1.5uH
X1 port1 port2 Model1C PARAMS:
+ R1=30
+ R2=0.013
+ C= {Cpar}
+ K1=0.000001
+ K2=0.44
+ K3= {Ind}
+ K4=0.000001
+ K5=0.000001
+ L=1.5295E-06
+ Is=16.3201157
+ a=0.63439885
+ L_Z0=0
+ L_EL=0
+ L_F0=0E6
+ PkZ=2044.08901
.ends XGL4020-152_sat

*======================================================================
* SPICE Model generated by Coilcraft
* Coilcraft Part Number : XGL4020-222
* Inductance = 2.2uH
*======================================================================
* Model Parameters:
*   Valid Frequency Range = 0.1MHz-50MHz
*   Ambient Temperature = 25 degC
*   Inductor Frequency Model
*   Use model for Frequency Domain simulations
*======================================================================
.subckt XGL4020-222_freq port1 port2 PARAMS: Cpar=7.12pF Ind=2.2uH
X1 port1 port2 Model1A PARAMS:
+ R1=63
+ R2=0.0195
+ C= {Cpar}
+ K1=0.000001
+ K2=0.66
+ K3= {Ind}
+ K4=0.000001
+ K5=0.000001
+ L=2.1917E-06
+ Is=12.9171972
+ a=0.66530962
+ L_Z0=0
+ L_EL=0
+ L_F0=0E6
+ PkZ=2268.37916
.ends XGL4020-222_freq

*======================================================================
* SPICE Model generated by Coilcraft
* Coilcraft Part Number : XGL4020-222
* Inductance = 2.2uH
*======================================================================
* Model Parameters:
*   Valid Frequency Range = 0.1MHz-50MHz
*   Ambient Temperature = 25 degC
*   Inductor Saturation Model
*   Use model for Time Domain simulations
*======================================================================
.subckt XGL4020-222_sat port1 port2 PARAMS: Cpar=7.12pF Ind=2.2uH
X1 port1 port2 Model1C PARAMS:
+ R1=63
+ R2=0.0195
+ C= {Cpar}
+ K1=0.000001
+ K2=0.66
+ K3= {Ind}
+ K4=0.000001
+ K5=0.000001
+ L=2.1917E-06
+ Is=12.9171972
+ a=0.66530962
+ L_Z0=0
+ L_EL=0
+ L_F0=0E6
+ PkZ=2268.37916
.ends XGL4020-222_sat

*======================================================================
* SPICE Model generated by Coilcraft
* Coilcraft Part Number : XGL4020-332
* Inductance = 3.3uH
*======================================================================
* Model Parameters:
*   Valid Frequency Range = 0.1MHz-50MHz
*   Ambient Temperature = 25 degC
*   Inductor Frequency Model
*   Use model for Frequency Domain simulations
*======================================================================
.subckt XGL4020-332_freq port1 port2 PARAMS: Cpar=7.92pF Ind=3.3uH
X1 port1 port2 Model1A PARAMS:
+ R1=35.6
+ R2=0.0308
+ C= {Cpar}
+ K1=0.000001
+ K2=0.98
+ K3= {Ind}
+ K4=0.00693
+ K5=0.01
+ L=3.2409E-06
+ Is=10.0466074
+ a=0.67908918
+ L_Z0=0
+ L_EL=0
+ L_F0=0E6
+ PkZ=3714.55476
.ends XGL4020-332_freq

*======================================================================
* SPICE Model generated by Coilcraft
* Coilcraft Part Number : XGL4020-332
* Inductance = 3.3uH
*======================================================================
* Model Parameters:
*   Valid Frequency Range = 0.1MHz-50MHz
*   Ambient Temperature = 25 degC
*   Inductor Saturation Model
*   Use model for Time Domain simulations
*======================================================================
.subckt XGL4020-332_sat port1 port2 PARAMS: Cpar=7.71pF Ind=3.3uH
X1 port1 port2 Model1C PARAMS:
+ R1=35.6
+ R2=0.0308
+ C= {Cpar}
+ K1=0.000001
+ K2=0.98
+ K3= {Ind}
+ K4=0.00693
+ K5=0.01
+ L=3.2409E-06
+ Is=10.0466074
+ a=0.67908918
+ L_Z0=0
+ L_EL=0
+ L_F0=0E6
+ PkZ=3714.55476
.ends XGL4020-332_sat

*======================================================================
* SPICE Model generated by Coilcraft
* Coilcraft Part Number : XGL4020-472
* Inductance = 4.7uH
*======================================================================
* Model Parameters:
*   Valid Frequency Range = 0.1MHz-35MHz
*   Ambient Temperature = 25 degC
*   Inductor Frequency Model
*   Use model for Frequency Domain simulations
*======================================================================
.subckt XGL4020-472_freq port1 port2 PARAMS: Cpar=8.62pF Ind=4.7uH
X1 port1 port2 Model1A PARAMS:
+ R1=38.6
+ R2=0.043
+ C= {Cpar}
+ K1=0.000001
+ K2=1.44
+ K3= {Ind}
+ K4=0.01
+ K5=0.0001
+ L=4.8234E-06
+ Is=8.31990307
+ a=0.68245126
+ L_Z0=0
+ L_EL=0
+ L_F0=0E6
+ PkZ=4758.96144
.ends XGL4020-472_freq

*======================================================================
* SPICE Model generated by Coilcraft
* Coilcraft Part Number : XGL4020-472
* Inductance = 4.7uH
*======================================================================
* Model Parameters:
*   Valid Frequency Range = 0.1MHz-35MHz
*   Ambient Temperature = 25 degC
*   Inductor Saturation Model
*   Use model for Time Domain simulations
*======================================================================
.subckt XGL4020-472_sat port1 port2 PARAMS: Cpar=8.48pF Ind=4.7uH
X1 port1 port2 Model1C PARAMS:
+ R1=38.6
+ R2=0.043
+ C= {Cpar}
+ K1=0.000001
+ K2=1.44
+ K3= {Ind}
+ K4=0.01
+ K5=0.0001
+ L=4.8234E-06
+ Is=8.31990307
+ a=0.68245126
+ L_Z0=0
+ L_EL=0
+ L_F0=0E6
+ PkZ=4758.96144
.ends XGL4020-472_sat

*======================================================================
* SPICE Model generated by Coilcraft
* Coilcraft Part Number : XGL4020-562
* Inductance = 5.6uH
*======================================================================
* Model Parameters:
*   Valid Frequency Range = 0.1MHz-35MHz
*   Ambient Temperature = 25 degC
*   Inductor Frequency Model
*   Use model for Frequency Domain simulations
*======================================================================
.subckt XGL4020-562_freq port1 port2 PARAMS: Cpar=9pF Ind=5.6uH
X1 port1 port2 Model1A PARAMS:
+ R1=22
+ R2=0.0487
+ C= {Cpar}
+ K1=0.000001
+ K2=1.78
+ K3= {Ind}
+ K4=0.000001
+ K5=0.0013
+ L=5.7038E-06
+ Is=8.19141034
+ a=0.64770531
+ L_Z0=0
+ L_EL=0
+ L_F0=0E6
+ PkZ=6493.84541
.ends XGL4020-562_freq

*======================================================================
* SPICE Model generated by Coilcraft
* Coilcraft Part Number : XGL4020-562
* Inductance = 5.6uH
*======================================================================
* Model Parameters:
*   Valid Frequency Range = 0.1MHz-35MHz
*   Ambient Temperature = 25 degC
*   Inductor Saturation Model
*   Use model for Time Domain simulations
*======================================================================
.subckt XGL4020-562_sat port1 port2 PARAMS: Cpar=9.00pF Ind=5.6uH
X1 port1 port2 Model1C PARAMS:
+ R1=22
+ R2=0.0487
+ C= {Cpar}
+ K1=0.000001
+ K2=1.78
+ K3= {Ind}
+ K4=0.000001
+ K5=0.0013
+ L=5.7038E-06
+ Is=8.19141034
+ a=0.64770531
+ L_Z0=0
+ L_EL=0
+ L_F0=0E6
+ PkZ=6493.84541
.ends XGL4020-562_sat

*======================================================================
* SPICE Model generated by Coilcraft
* Coilcraft Part Number : XGL4020-682
* Inductance = 6.8uH
*======================================================================
* Model Parameters:
*   Valid Frequency Range = 0.1MHz-25MHz
*   Ambient Temperature = 25 degC
*   Inductor Frequency Model
*   Use model for Frequency Domain simulations
*======================================================================
.subckt XGL4020-682_freq port1 port2 PARAMS: Cpar=7.8pF Ind=6.8uH
X1 port1 port2 Model1A PARAMS:
+ R1=52.2
+ R2=0.0636
+ C= {Cpar}
+ K1=0.000001
+ K2=1.93
+ K3= {Ind}
+ K4=0.01
+ K5=0.000001
+ L=6.9534E-06
+ Is=6.85184413
+ a=0.6755723
+ L_Z0=0
+ L_EL=0
+ L_F0=0E6
+ PkZ=5857.93947
.ends XGL4020-682_freq

*======================================================================
* SPICE Model generated by Coilcraft
* Coilcraft Part Number : XGL4020-682
* Inductance = 6.8uH
*======================================================================
* Model Parameters:
*   Valid Frequency Range = 0.1MHz-25MHz
*   Ambient Temperature = 25 degC
*   Inductor Saturation Model
*   Use model for Time Domain simulations
*======================================================================
.subckt XGL4020-682_sat port1 port2 PARAMS: Cpar=7.76pF Ind=6.8uH
X1 port1 port2 Model1C PARAMS:
+ R1=52.2
+ R2=0.0636
+ C= {Cpar}
+ K1=0.000001
+ K2=1.93
+ K3= {Ind}
+ K4=0.01
+ K5=0.000001
+ L=6.9534E-06
+ Is=6.85184413
+ a=0.6755723
+ L_Z0=0
+ L_EL=0
+ L_F0=0E6
+ PkZ=5857.93947
.ends XGL4020-682_sat

*======================================================================
* SPICE Model generated by Coilcraft
* Coilcraft Part Number : XGL4020-822
* Inductance = 8.2uH
*======================================================================
* Model Parameters:
*   Valid Frequency Range = 0.1MHz-25MHz
*   Ambient Temperature = 25 degC
*   Inductor Frequency Model
*   Use model for Frequency Domain simulations
*======================================================================
.subckt XGL4020-822_freq port1 port2 PARAMS: Cpar=7.2pF Ind=8.2uH
X1 port1 port2 Model1A PARAMS:
+ R1=49.9
+ R2=0.071
+ C= {Cpar}
+ K1=0.000001
+ K2=3.4
+ K3= {Ind}
+ K4=0.00013
+ K5=0.000001
+ L=7.9392E-06
+ Is=6.75556752
+ a=0.63935071
+ L_Z0=0
+ L_EL=0
+ L_F0=0E6
+ PkZ=9227.86931
.ends XGL4020-822_freq

*======================================================================
* SPICE Model generated by Coilcraft
* Coilcraft Part Number : XGL4020-822
* Inductance = 8.2uH
*======================================================================
* Model Parameters:
*   Valid Frequency Range = 0.1MHz-25MHz
*   Ambient Temperature = 25 degC
*   Inductor Saturation Model
*   Use model for Time Domain simulations
*======================================================================
.subckt XGL4020-822_sat port1 port2 PARAMS: Cpar=7.20pF Ind=8.2uH
X1 port1 port2 Model1C PARAMS:
+ R1=49.9
+ R2=0.071
+ C= {Cpar}
+ K1=0.000001
+ K2=3.4
+ K3= {Ind}
+ K4=0.00013
+ K5=0.000001
+ L=7.9392E-06
+ Is=6.75556752
+ a=0.63935071
+ L_Z0=0
+ L_EL=0
+ L_F0=0E6
+ PkZ=9227.86931
.ends XGL4020-822_sat

*======================================================================
* SPICE Model generated by Coilcraft
* Coilcraft Saturation Inductor Model
*======================================================================
* Model Parameters:
*   Valid Frequency Range Varies by Inductor
*   Ambient Temperature = 25 degC
*   Current Saturable Inductor Model
*======================================================================
.subckt Model1C Lin Lout PARAMS:
+ R1=1
+ R2=1
+ C=1
+ L=1
+ Is=1
+ a=1
+ PkZ=94.2 * {L} *1e6
R2 N001 Lin {R2}
R3 Lout N001 {PkZ}
C1 N002 N001 {C}
R1 Lout N002 {R1}
E1 N003 N001 N004 0 1
G1 0 N004 VALUE={{L*Is}*tanh((I(E1)/{Is})**{a})**{1/a}}
L1 N004 0 1
E2 N003 Lout N005 0 1
G2 0 N005 VALUE={{L*Is}*tanh((I(E2)/{Is})**{a})**{1/a}}
L2 N005 0 1
.ends Model1C
*======================================================================
* SPICE Model generated by Coilcraft
* Coilcraft Power Inductor Model
*======================================================================
* Model Parameters:
*   Valid Frequency Range Varies by Inductor
*   Ambient Temperature = 25 degC
*   DC Bias Current = 0 A
*   Frequency Dependent Inductor Model
*======================================================================
.subckt Model1A Lin Lout PARAMS:
+ R1=1
+ R2=1
+ C=1
+ K1=1
+ K2=1
+ K3=1
+ K4=1
+ K5=1
R2 N001 Lin {R2}
R1 Lout N002 {R1}
C1 N002 N001 {C}
G_Rvar2 N001 Lout LAPLACE { V(N001, Lout) } {1/K2/(-S*S/4/PI^2)^0.25}
G_Rvar1 N001 N003 LAPLACE { V(N001, N003) } {1/K1/(-S*S/4/PI^2)^0.25}
G_Lvar N003 Lout  LAPLACE { V(N003, Lout) } {1/(S*1e-6*({K3*1e6}-({K4}*LOG({K5}*(sqrt(-S*S)/(2*pi))))))}
*This large resistance to ground has been added to prevent a floating node error
R3 N003 0 100Meg
.ends Model1A


.subckt Coilcraft_Inductor Lin Lout
R1 Lout Lin 100Meg
.ends Coilcraft_Inductor
