*======================================================================
* SPICE Model generated by Coilcraft
* Coilcraft Part Number : XPL2010-201
* Inductance = 0.2uH
*======================================================================
* Model Parameters:
*   Valid Frequency Range = 0.1MHz-200MHz
*   Ambient Temperature = 25 degC
*   Inductor Frequency Model
*   Use model for Frequency Domain simulations
*======================================================================
.subckt XPL2010-201_freq port1 port2 PARAMS: Cpar=1.19pF Ind=0.2uH
X1 port1 port2 Model1A PARAMS:
+ R1=450
+ R2=0.024
+ C= {Cpar}
+ K1=0.00001
+ K2=0.04
+ K3= {Ind}
+ K4=0.001
+ K5=0.000008
+ L=1.9592E-07
+ Is=4.10616049
+ a=2.10435179
+ L_Z0=0
+ L_EL=0
+ L_F0=0E6
+ PkZ=338.684989
.ends XPL2010-201_freq

*======================================================================
* SPICE Model generated by Coilcraft
* Coilcraft Part Number : XPL2010-201
* Inductance = 0.2uH
*======================================================================
* Model Parameters:
*   Valid Frequency Range = 0.1MHz-200MHz
*   Ambient Temperature = 25 degC
*   Inductor Saturation Model
*   Use model for Time Domain simulations
*======================================================================
.subckt XPL2010-201_sat port1 port2 PARAMS: Cpar=1.14pF Ind=0.2uH
X1 port1 port2 Model1C PARAMS:
+ R1=450
+ R2=0.024
+ C= {Cpar}
+ K1=0.00001
+ K2=0.04
+ K3= {Ind}
+ K4=0.001
+ K5=0.000008
+ L=1.9592E-07
+ Is=4.10616049
+ a=2.10435179
+ L_Z0=0
+ L_EL=0
+ L_F0=0E6
+ PkZ=338.684989
.ends XPL2010-201_sat

*======================================================================
* SPICE Model generated by Coilcraft
* Coilcraft Part Number : XPL2010-331
* Inductance = 0.33uH
*======================================================================
* Model Parameters:
*   Valid Frequency Range = 0.1MHz-200MHz
*   Ambient Temperature = 25 degC
*   Inductor Frequency Model
*   Use model for Frequency Domain simulations
*======================================================================
.subckt XPL2010-331_freq port1 port2 PARAMS: Cpar=1.27pF Ind=0.33uH
X1 port1 port2 Model1A PARAMS:
+ R1=350
+ R2=0.031
+ C= {Cpar}
+ K1=0.00001
+ K2=0.08
+ K3= {Ind}
+ K4=0.002
+ K5=0.000008
+ L=3.1069E-07
+ Is=3.39665494
+ a=2.1047757
+ L_Z0=0
+ L_EL=0
+ L_F0=0E6
+ PkZ=538.682121
.ends XPL2010-331_freq

*======================================================================
* SPICE Model generated by Coilcraft
* Coilcraft Part Number : XPL2010-331
* Inductance = 0.33uH
*======================================================================
* Model Parameters:
*   Valid Frequency Range = 0.1MHz-200MHz
*   Ambient Temperature = 25 degC
*   Inductor Saturation Model
*   Use model for Time Domain simulations
*======================================================================
.subckt XPL2010-331_sat port1 port2 PARAMS: Cpar=1.21pF Ind=0.33uH
X1 port1 port2 Model1C PARAMS:
+ R1=350
+ R2=0.031
+ C= {Cpar}
+ K1=0.00001
+ K2=0.08
+ K3= {Ind}
+ K4=0.002
+ K5=0.000008
+ L=3.1069E-07
+ Is=3.39665494
+ a=2.1047757
+ L_Z0=0
+ L_EL=0
+ L_F0=0E6
+ PkZ=538.682121
.ends XPL2010-331_sat

*======================================================================
* SPICE Model generated by Coilcraft
* Coilcraft Part Number : XPL2010-501
* Inductance = 0.5uH
*======================================================================
* Model Parameters:
*   Valid Frequency Range = 0.1MHz-100MHz
*   Ambient Temperature = 25 degC
*   Inductor Frequency Model
*   Use model for Frequency Domain simulations
*======================================================================
.subckt XPL2010-501_freq port1 port2 PARAMS: Cpar=1.44pF Ind=0.5uH
X1 port1 port2 Model1A PARAMS:
+ R1=300
+ R2=0.04
+ C= {Cpar}
+ K1=0.00003
+ K2=0.11
+ K3= {Ind}
+ K4=0.004
+ K5=0.000009
+ L=4.26E-07
+ Is=3.15603301
+ a=1.96862792
+ L_Z0=0
+ L_EL=0
+ L_F0=0E6
+ PkZ=701.170099
.ends XPL2010-501_freq

*======================================================================
* SPICE Model generated by Coilcraft
* Coilcraft Part Number : XPL2010-501
* Inductance = 0.5uH
*======================================================================
* Model Parameters:
*   Valid Frequency Range = 0.1MHz-100MHz
*   Ambient Temperature = 25 degC
*   Inductor Saturation Model
*   Use model for Time Domain simulations
*======================================================================
.subckt XPL2010-501_sat port1 port2 PARAMS: Cpar=1.35pF Ind=0.5uH
X1 port1 port2 Model1C PARAMS:
+ R1=300
+ R2=0.04
+ C= {Cpar}
+ K1=0.00003
+ K2=0.11
+ K3= {Ind}
+ K4=0.004
+ K5=0.000009
+ L=4.26E-07
+ Is=3.15603301
+ a=1.96862792
+ L_Z0=0
+ L_EL=0
+ L_F0=0E6
+ PkZ=701.170099
.ends XPL2010-501_sat

*======================================================================
* SPICE Model generated by Coilcraft
* Coilcraft Part Number : XPL2010-681
* Inductance = 0.68uH
*======================================================================
* Model Parameters:
*   Valid Frequency Range = 0.1MHz-100MHz
*   Ambient Temperature = 25 degC
*   Inductor Frequency Model
*   Use model for Frequency Domain simulations
*======================================================================
.subckt XPL2010-681_freq port1 port2 PARAMS: Cpar=1.61pF Ind=0.68uH
X1 port1 port2 Model1A PARAMS:
+ R1=185
+ R2=0.057
+ C= {Cpar}
+ K1=0.00003
+ K2=0.16
+ K3= {Ind}
+ K4=0.005
+ K5=0.000009
+ L=6.683E-07
+ Is=3.04381963
+ a=1.58860462
+ L_Z0=0
+ L_EL=0
+ L_F0=0E6
+ PkZ=1069.19153
.ends XPL2010-681_freq

*======================================================================
* SPICE Model generated by Coilcraft
* Coilcraft Part Number : XPL2010-681
* Inductance = 0.68uH
*======================================================================
* Model Parameters:
*   Valid Frequency Range = 0.1MHz-100MHz
*   Ambient Temperature = 25 degC
*   Inductor Saturation Model
*   Use model for Time Domain simulations
*======================================================================
.subckt XPL2010-681_sat port1 port2 PARAMS: Cpar=1.52pF Ind=0.68uH
X1 port1 port2 Model1C PARAMS:
+ R1=185
+ R2=0.057
+ C= {Cpar}
+ K1=0.00003
+ K2=0.16
+ K3= {Ind}
+ K4=0.005
+ K5=0.000009
+ L=6.683E-07
+ Is=3.04381963
+ a=1.58860462
+ L_Z0=0
+ L_EL=0
+ L_F0=0E6
+ PkZ=1069.19153
.ends XPL2010-681_sat

*======================================================================
* SPICE Model generated by Coilcraft
* Coilcraft Part Number : XPL2010-821
* Inductance = 0.82uH
*======================================================================
* Model Parameters:
*   Valid Frequency Range = 0.1MHz-100MHz
*   Ambient Temperature = 25 degC
*   Inductor Frequency Model
*   Use model for Frequency Domain simulations
*======================================================================
.subckt XPL2010-821_freq port1 port2 PARAMS: Cpar=1.54pF Ind=0.82uH
X1 port1 port2 Model1A PARAMS:
+ R1=270
+ R2=0.068
+ C= {Cpar}
+ K1=0.00004
+ K2=0.18
+ K3= {Ind}
+ K4=0.007
+ K5=0.000009
+ L=7.9184E-07
+ Is=2.3534979
+ a=2.10819133
+ L_Z0=0
+ L_EL=0
+ L_F0=0E6
+ PkZ=1053.68635
.ends XPL2010-821_freq

*======================================================================
* SPICE Model generated by Coilcraft
* Coilcraft Part Number : XPL2010-821
* Inductance = 0.82uH
*======================================================================
* Model Parameters:
*   Valid Frequency Range = 0.1MHz-100MHz
*   Ambient Temperature = 25 degC
*   Inductor Saturation Model
*   Use model for Time Domain simulations
*======================================================================
.subckt XPL2010-821_sat port1 port2 PARAMS: Cpar=1.45pF Ind=0.82uH
X1 port1 port2 Model1C PARAMS:
+ R1=270
+ R2=0.068
+ C= {Cpar}
+ K1=0.00004
+ K2=0.18
+ K3= {Ind}
+ K4=0.007
+ K5=0.000009
+ L=7.9184E-07
+ Is=2.3534979
+ a=2.10819133
+ L_Z0=0
+ L_EL=0
+ L_F0=0E6
+ PkZ=1053.68635
.ends XPL2010-821_sat

*======================================================================
* SPICE Model generated by Coilcraft
* Coilcraft Part Number : XPL2010-102
* Inductance = 1uH
*======================================================================
* Model Parameters:
*   Valid Frequency Range = 0.1MHz-100MHz
*   Ambient Temperature = 25 degC
*   Inductor Frequency Model
*   Use model for Frequency Domain simulations
*======================================================================
.subckt XPL2010-102_freq port1 port2 PARAMS: Cpar=1.93pF Ind=1uH
X1 port1 port2 Model1A PARAMS:
+ R1=170
+ R2=0.081
+ C= {Cpar}
+ K1=0.00002
+ K2=0.24
+ K3= {Ind}
+ K4=0.01
+ K5=0.000009
+ L=9.1828E-07
+ Is=2.53554363
+ a=1.74255666
+ L_Z0=0
+ L_EL=0
+ L_F0=0E6
+ PkZ=1388.75609
.ends XPL2010-102_freq

*======================================================================
* SPICE Model generated by Coilcraft
* Coilcraft Part Number : XPL2010-102
* Inductance = 1uH
*======================================================================
* Model Parameters:
*   Valid Frequency Range = 0.1MHz-100MHz
*   Ambient Temperature = 25 degC
*   Inductor Saturation Model
*   Use model for Time Domain simulations
*======================================================================
.subckt XPL2010-102_sat port1 port2 PARAMS: Cpar=1.80pF Ind=1uH
X1 port1 port2 Model1C PARAMS:
+ R1=170
+ R2=0.081
+ C= {Cpar}
+ K1=0.00002
+ K2=0.24
+ K3= {Ind}
+ K4=0.01
+ K5=0.000009
+ L=9.1828E-07
+ Is=2.53554363
+ a=1.74255666
+ L_Z0=0
+ L_EL=0
+ L_F0=0E6
+ PkZ=1388.75609
.ends XPL2010-102_sat

*======================================================================
* SPICE Model generated by Coilcraft
* Coilcraft Part Number : XPL2010-152
* Inductance = 1.5uH
*======================================================================
* Model Parameters:
*   Valid Frequency Range = 0.1MHz-90MHz
*   Ambient Temperature = 25 degC
*   Inductor Frequency Model
*   Use model for Frequency Domain simulations
*======================================================================
.subckt XPL2010-152_freq port1 port2 PARAMS: Cpar=3.11pF Ind=1.5uH
X1 port1 port2 Model1A PARAMS:
+ R1=140
+ R2=0.105
+ C= {Cpar}
+ K1=0.00002
+ K2=0.4
+ K3= {Ind}
+ K4=0.013
+ K5=0.0000095
+ L=1.4285E-06
+ Is=1.90780203
+ a=2.41458918
+ L_Z0=0
+ L_EL=0
+ L_F0=0E6
+ PkZ=1707.54113
.ends XPL2010-152_freq

*======================================================================
* SPICE Model generated by Coilcraft
* Coilcraft Part Number : XPL2010-152
* Inductance = 1.5uH
*======================================================================
* Model Parameters:
*   Valid Frequency Range = 0.1MHz-90MHz
*   Ambient Temperature = 25 degC
*   Inductor Saturation Model
*   Use model for Time Domain simulations
*======================================================================
.subckt XPL2010-152_sat port1 port2 PARAMS: Cpar=2.93pF Ind=1.5uH
X1 port1 port2 Model1C PARAMS:
+ R1=140
+ R2=0.105
+ C= {Cpar}
+ K1=0.00002
+ K2=0.4
+ K3= {Ind}
+ K4=0.013
+ K5=0.0000095
+ L=1.4285E-06
+ Is=1.90780203
+ a=2.41458918
+ L_Z0=0
+ L_EL=0
+ L_F0=0E6
+ PkZ=1707.54113
.ends XPL2010-152_sat

*======================================================================
* SPICE Model generated by Coilcraft
* Coilcraft Part Number : XPL2010-222
* Inductance = 2.2uH
*======================================================================
* Model Parameters:
*   Valid Frequency Range = 0.1MHz-70MHz
*   Ambient Temperature = 25 degC
*   Inductor Frequency Model
*   Use model for Frequency Domain simulations
*======================================================================
.subckt XPL2010-222_freq port1 port2 PARAMS: Cpar=2.22pF Ind=2.2uH
X1 port1 port2 Model1A PARAMS:
+ R1=170
+ R2=0.126
+ C= {Cpar}
+ K1=0.00008
+ K2=0.52
+ K3= {Ind}
+ K4=0.02
+ K5=0.0000098
+ L=2.2563E-06
+ Is=1.87352481
+ a=1.20784777
+ L_Z0=0
+ L_EL=0
+ L_F0=0E6
+ PkZ=2487.2925
.ends XPL2010-222_freq

*======================================================================
* SPICE Model generated by Coilcraft
* Coilcraft Part Number : XPL2010-222
* Inductance = 2.2uH
*======================================================================
* Model Parameters:
*   Valid Frequency Range = 0.1MHz-70MHz
*   Ambient Temperature = 25 degC
*   Inductor Saturation Model
*   Use model for Time Domain simulations
*======================================================================
.subckt XPL2010-222_sat port1 port2 PARAMS: Cpar=2.09pF Ind=2.2uH
X1 port1 port2 Model1C PARAMS:
+ R1=170
+ R2=0.126
+ C= {Cpar}
+ K1=0.00008
+ K2=0.52
+ K3= {Ind}
+ K4=0.02
+ K5=0.0000098
+ L=2.2563E-06
+ Is=1.87352481
+ a=1.20784777
+ L_Z0=0
+ L_EL=0
+ L_F0=0E6
+ PkZ=2487.2925
.ends XPL2010-222_sat

*======================================================================
* SPICE Model generated by Coilcraft
* Coilcraft Part Number : XPL2010-332
* Inductance = 3.3uH
*======================================================================
* Model Parameters:
*   Valid Frequency Range = 0.1MHz-70MHz
*   Ambient Temperature = 25 degC
*   Inductor Frequency Model
*   Use model for Frequency Domain simulations
*======================================================================
.subckt XPL2010-332_freq port1 port2 PARAMS: Cpar=2.21pF Ind=3.3uH
X1 port1 port2 Model1A PARAMS:
+ R1=300
+ R2=0.207
+ C= {Cpar}
+ K1=0.00005
+ K2=0.7
+ K3= {Ind}
+ K4=0.25
+ K5=0.0000098
+ L=3.187E-06
+ Is=1.3942278
+ a=1.69805733
+ L_Z0=0
+ L_EL=0
+ L_F0=0E6
+ PkZ=1867.68714
.ends XPL2010-332_freq

*======================================================================
* SPICE Model generated by Coilcraft
* Coilcraft Part Number : XPL2010-332
* Inductance = 3.3uH
*======================================================================
* Model Parameters:
*   Valid Frequency Range = 0.1MHz-70MHz
*   Ambient Temperature = 25 degC
*   Inductor Saturation Model
*   Use model for Time Domain simulations
*======================================================================
.subckt XPL2010-332_sat port1 port2 PARAMS: Cpar=1.15pF Ind=3.3uH
X1 port1 port2 Model1C PARAMS:
+ R1=300
+ R2=0.207
+ C= {Cpar}
+ K1=0.00005
+ K2=0.7
+ K3= {Ind}
+ K4=0.25
+ K5=0.0000098
+ L=3.187E-06
+ Is=1.3942278
+ a=1.69805733
+ L_Z0=0
+ L_EL=0
+ L_F0=0E6
+ PkZ=1867.68714
.ends XPL2010-332_sat

*======================================================================
* SPICE Model generated by Coilcraft
* Coilcraft Part Number : XPL2010-472
* Inductance = 4.7uH
*======================================================================
* Model Parameters:
*   Valid Frequency Range = 0.1MHz-60MHz
*   Ambient Temperature = 25 degC
*   Inductor Frequency Model
*   Use model for Frequency Domain simulations
*======================================================================
.subckt XPL2010-472_freq port1 port2 PARAMS: Cpar=2.24pF Ind=4.7uH
X1 port1 port2 Model1A PARAMS:
+ R1=260
+ R2=0.258
+ C= {Cpar}
+ K1=0.00008
+ K2=1.35
+ K3= {Ind}
+ K4=0.035
+ K5=0.0000098
+ L=4.6574E-06
+ Is=1.16767934
+ a=1.1434555
+ L_Z0=0
+ L_EL=0
+ L_F0=0E6
+ PkZ=4317.6258
.ends XPL2010-472_freq

*======================================================================
* SPICE Model generated by Coilcraft
* Coilcraft Part Number : XPL2010-472
* Inductance = 4.7uH
*======================================================================
* Model Parameters:
*   Valid Frequency Range = 0.1MHz-60MHz
*   Ambient Temperature = 25 degC
*   Inductor Saturation Model
*   Use model for Time Domain simulations
*======================================================================
.subckt XPL2010-472_sat port1 port2 PARAMS: Cpar=2.14pF Ind=4.7uH
X1 port1 port2 Model1C PARAMS:
+ R1=260
+ R2=0.258
+ C= {Cpar}
+ K1=0.00008
+ K2=1.35
+ K3= {Ind}
+ K4=0.035
+ K5=0.0000098
+ L=4.6574E-06
+ Is=1.16767934
+ a=1.1434555
+ L_Z0=0
+ L_EL=0
+ L_F0=0E6
+ PkZ=4317.6258
.ends XPL2010-472_sat

*======================================================================
* SPICE Model generated by Coilcraft
* Coilcraft Part Number : XPL2010-682
* Inductance = 6.8uH
*======================================================================
* Model Parameters:
*   Valid Frequency Range = 0.1MHz-50MHz
*   Ambient Temperature = 25 degC
*   Inductor Frequency Model
*   Use model for Frequency Domain simulations
*======================================================================
.subckt XPL2010-682_freq port1 port2 PARAMS: Cpar=2.09pF Ind=6.8uH
X1 port1 port2 Model1A PARAMS:
+ R1=320
+ R2=0.336
+ C= {Cpar}
+ K1=0.00009
+ K2=1.53
+ K3= {Ind}
+ K4=0.062
+ K5=0.0000098
+ L=6.4379E-06
+ Is=0.9866452
+ a=1.38906397
+ L_Z0=0
+ L_EL=0
+ L_F0=0E6
+ PkZ=4976.78419
.ends XPL2010-682_freq

*======================================================================
* SPICE Model generated by Coilcraft
* Coilcraft Part Number : XPL2010-682
* Inductance = 6.8uH
*======================================================================
* Model Parameters:
*   Valid Frequency Range = 0.1MHz-50MHz
*   Ambient Temperature = 25 degC
*   Inductor Saturation Model
*   Use model for Time Domain simulations
*======================================================================
.subckt XPL2010-682_sat port1 port2 PARAMS: Cpar=1.98pF Ind=6.8uH
X1 port1 port2 Model1C PARAMS:
+ R1=320
+ R2=0.336
+ C= {Cpar}
+ K1=0.00009
+ K2=1.53
+ K3= {Ind}
+ K4=0.062
+ K5=0.0000098
+ L=6.4379E-06
+ Is=0.9866452
+ a=1.38906397
+ L_Z0=0
+ L_EL=0
+ L_F0=0E6
+ PkZ=4976.78419
.ends XPL2010-682_sat

*======================================================================
* SPICE Model generated by Coilcraft
* Coilcraft Part Number : XPL2010-822
* Inductance = 8.2uH
*======================================================================
* Model Parameters:
*   Valid Frequency Range = 0.1MHz-40MHz
*   Ambient Temperature = 25 degC
*   Inductor Frequency Model
*   Use model for Frequency Domain simulations
*======================================================================
.subckt XPL2010-822_freq port1 port2 PARAMS: Cpar=3.31pF Ind=8.2uH
X1 port1 port2 Model1A PARAMS:
+ R1=300
+ R2=0.457
+ C= {Cpar}
+ K1=0.00006
+ K2=2
+ K3= {Ind}
+ K4=0.098
+ K5=0.0000099
+ L=7.6348E-06
+ Is=0.82043465
+ a=1.78805121
+ L_Z0=0
+ L_EL=0
+ L_F0=0E6
+ PkZ=4639.29574
.ends XPL2010-822_freq

*======================================================================
* SPICE Model generated by Coilcraft
* Coilcraft Part Number : XPL2010-822
* Inductance = 8.2uH
*======================================================================
* Model Parameters:
*   Valid Frequency Range = 0.1MHz-40MHz
*   Ambient Temperature = 25 degC
*   Inductor Saturation Model
*   Use model for Time Domain simulations
*======================================================================
.subckt XPL2010-822_sat port1 port2 PARAMS: Cpar=3.08pF Ind=8.2uH
X1 port1 port2 Model1C PARAMS:
+ R1=300
+ R2=0.457
+ C= {Cpar}
+ K1=0.00006
+ K2=2
+ K3= {Ind}
+ K4=0.098
+ K5=0.0000099
+ L=7.6348E-06
+ Is=0.82043465
+ a=1.78805121
+ L_Z0=0
+ L_EL=0
+ L_F0=0E6
+ PkZ=4639.29574
.ends XPL2010-822_sat

*======================================================================
* SPICE Model generated by Coilcraft
* Coilcraft Part Number : XPL2010-103
* Inductance = 10uH
*======================================================================
* Model Parameters:
*   Valid Frequency Range = 0.1MHz-30MHz
*   Ambient Temperature = 25 degC
*   Inductor Frequency Model
*   Use model for Frequency Domain simulations
*======================================================================
.subckt XPL2010-103_freq port1 port2 PARAMS: Cpar=4.24pF Ind=10uH
X1 port1 port2 Model1A PARAMS:
+ R1=325
+ R2=0.555
+ C= {Cpar}
+ K1=0.00015
+ K2=2.3
+ K3= {Ind}
+ K4=0.121
+ K5=0.00000985
+ L=9.8342E-06
+ Is=0.78988424
+ a=1.63505718
+ L_Z0=0
+ L_EL=0
+ L_F0=0E6
+ PkZ=4353.13882
.ends XPL2010-103_freq

*======================================================================
* SPICE Model generated by Coilcraft
* Coilcraft Part Number : XPL2010-103
* Inductance = 10uH
*======================================================================
* Model Parameters:
*   Valid Frequency Range = 0.1MHz-30MHz
*   Ambient Temperature = 25 degC
*   Inductor Saturation Model
*   Use model for Time Domain simulations
*======================================================================
.subckt XPL2010-103_sat port1 port2 PARAMS: Cpar=3.96pF Ind=10uH
X1 port1 port2 Model1C PARAMS:
+ R1=325
+ R2=0.555
+ C= {Cpar}
+ K1=0.00015
+ K2=2.3
+ K3= {Ind}
+ K4=0.121
+ K5=0.00000985
+ L=9.8342E-06
+ Is=0.78988424
+ a=1.63505718
+ L_Z0=0
+ L_EL=0
+ L_F0=0E6
+ PkZ=4353.13882
.ends XPL2010-103_sat

*======================================================================
* SPICE Model generated by Coilcraft
* Coilcraft Part Number : XPL2010-183
* Inductance = 18uH
*======================================================================
* Model Parameters:
*   Valid Frequency Range = 0.1MHz-40MHz
*   Ambient Temperature = 25 degC
*   Inductor Frequency Model
*   Use model for Frequency Domain simulations
*======================================================================
.subckt XPL2010-183_freq port1 port2 PARAMS: Cpar=1.94pF Ind=18uH
X1 port1 port2 Model1A PARAMS:
+ R1=175
+ R2=1.47
+ C= {Cpar}
+ K1=0.00005
+ K2=7.07
+ K3= {Ind}
+ K4=0.121
+ K5=0.00000995
+ L=1.782E-05
+ Is=0.64502119
+ a=2.48626273
+ L_Z0=0
+ L_EL=0
+ L_F0=0E6
+ PkZ=21474.5323
.ends XPL2010-183_freq

*======================================================================
* SPICE Model generated by Coilcraft
* Coilcraft Part Number : XPL2010-183
* Inductance = 18uH
*======================================================================
* Model Parameters:
*   Valid Frequency Range = 0.1MHz-40MHz
*   Ambient Temperature = 25 degC
*   Inductor Saturation Model
*   Use model for Time Domain simulations
*======================================================================
.subckt XPL2010-183_sat port1 port2 PARAMS: Cpar=1.87pF Ind=18uH
X1 port1 port2 Model1C PARAMS:
+ R1=175
+ R2=1.47
+ C= {Cpar}
+ K1=0.00005
+ K2=7.07
+ K3= {Ind}
+ K4=0.121
+ K5=0.00000995
+ L=1.782E-05
+ Is=0.64502119
+ a=2.48626273
+ L_Z0=0
+ L_EL=0
+ L_F0=0E6
+ PkZ=21474.5323
.ends XPL2010-183_sat

*======================================================================
* SPICE Model generated by Coilcraft
* Coilcraft Part Number : XPL2010-223
* Inductance = 22uH
*======================================================================
* Model Parameters:
*   Valid Frequency Range = 0.1MHz-30MHz
*   Ambient Temperature = 25 degC
*   Inductor Frequency Model
*   Use model for Frequency Domain simulations
*======================================================================
.subckt XPL2010-223_freq port1 port2 PARAMS: Cpar=2.14pF Ind=22uH
X1 port1 port2 Model1A PARAMS:
+ R1=246
+ R2=1.89
+ C= {Cpar}
+ K1=0.00005
+ K2=12.7
+ K3= {Ind}
+ K4=0.161
+ K5=0.00000995
+ L=2.1834E-05
+ Is=0.63419233
+ a=2.51146489
+ L_Z0=0
+ L_EL=0
+ L_F0=0E6
+ PkZ=24376.4091
.ends XPL2010-223_freq

*======================================================================
* SPICE Model generated by Coilcraft
* Coilcraft Part Number : XPL2010-223
* Inductance = 22uH
*======================================================================
* Model Parameters:
*   Valid Frequency Range = 0.1MHz-30MHz
*   Ambient Temperature = 25 degC
*   Inductor Saturation Model
*   Use model for Time Domain simulations
*======================================================================
.subckt XPL2010-223_sat port1 port2 PARAMS: Cpar=2.05pF Ind=22uH
X1 port1 port2 Model1C PARAMS:
+ R1=246
+ R2=1.89
+ C= {Cpar}
+ K1=0.00005
+ K2=12.7
+ K3= {Ind}
+ K4=0.161
+ K5=0.00000995
+ L=2.1834E-05
+ Is=0.63419233
+ a=2.51146489
+ L_Z0=0
+ L_EL=0
+ L_F0=0E6
+ PkZ=24376.4091
.ends XPL2010-223_sat

*======================================================================
* SPICE Model generated by Coilcraft
* Coilcraft Part Number : XPL2010-333
* Inductance = 33uH
*======================================================================
* Model Parameters:
*   Valid Frequency Range = 0.1MHz-30MHz
*   Ambient Temperature = 25 degC
*   Inductor Frequency Model
*   Use model for Frequency Domain simulations
*======================================================================
.subckt XPL2010-333_freq port1 port2 PARAMS: Cpar=1.45pF Ind=33uH
X1 port1 port2 Model1A PARAMS:
+ R1=193
+ R2=2.59
+ C= {Cpar}
+ K1=0.00001
+ K2=12.7
+ K3= {Ind}
+ K4=0.126
+ K5=0.00000948
+ L=3.1952E-05
+ Is=0.48155759
+ a=3.9117992
+ L_Z0=0
+ L_EL=0
+ L_F0=0E6
+ PkZ=40035.8545
.ends XPL2010-333_freq

*======================================================================
* SPICE Model generated by Coilcraft
* Coilcraft Part Number : XPL2010-333
* Inductance = 33uH
*======================================================================
* Model Parameters:
*   Valid Frequency Range = 0.1MHz-30MHz
*   Ambient Temperature = 25 degC
*   Inductor Saturation Model
*   Use model for Time Domain simulations
*======================================================================
.subckt XPL2010-333_sat port1 port2 PARAMS: Cpar=1.42pF Ind=33uH
X1 port1 port2 Model1C PARAMS:
+ R1=193
+ R2=2.59
+ C= {Cpar}
+ K1=0.00001
+ K2=12.7
+ K3= {Ind}
+ K4=0.126
+ K5=0.00000948
+ L=3.1952E-05
+ Is=0.48155759
+ a=3.9117992
+ L_Z0=0
+ L_EL=0
+ L_F0=0E6
+ PkZ=40035.8545
.ends XPL2010-333_sat

*======================================================================
* SPICE Model generated by Coilcraft
* Coilcraft Part Number : XPL2010-473
* Inductance = 47uH
*======================================================================
* Model Parameters:
*   Valid Frequency Range = 0.1MHz-20MHz
*   Ambient Temperature = 25 degC
*   Inductor Frequency Model
*   Use model for Frequency Domain simulations
*======================================================================
.subckt XPL2010-473_freq port1 port2 PARAMS: Cpar=1.76pF Ind=47uH
X1 port1 port2 Model1A PARAMS:
+ R1=271
+ R2=3.96
+ C= {Cpar}
+ K1=0.00001
+ K2=20.7
+ K3= {Ind}
+ K4=0.262
+ K5=0.00000995
+ L=4.5031E-05
+ Is=0.41252056
+ a=2.90875987
+ L_Z0=0
+ L_EL=0
+ L_F0=0E6
+ PkZ=45681.4078
.ends XPL2010-473_freq

*======================================================================
* SPICE Model generated by Coilcraft
* Coilcraft Part Number : XPL2010-473
* Inductance = 47uH
*======================================================================
* Model Parameters:
*   Valid Frequency Range = 0.1MHz-20MHz
*   Ambient Temperature = 25 degC
*   Inductor Saturation Model
*   Use model for Time Domain simulations
*======================================================================
.subckt XPL2010-473_sat port1 port2 PARAMS: Cpar=1.71pF Ind=47uH
X1 port1 port2 Model1C PARAMS:
+ R1=271
+ R2=3.96
+ C= {Cpar}
+ K1=0.00001
+ K2=20.7
+ K3= {Ind}
+ K4=0.262
+ K5=0.00000995
+ L=4.5031E-05
+ Is=0.41252056
+ a=2.90875987
+ L_Z0=0
+ L_EL=0
+ L_F0=0E6
+ PkZ=45681.4078
.ends XPL2010-473_sat

*======================================================================
* SPICE Model generated by Coilcraft
* Coilcraft Part Number : XPL2010-563
* Inductance = 56uH
*======================================================================
* Model Parameters:
*   Valid Frequency Range = 0.1MHz-20MHz
*   Ambient Temperature = 25 degC
*   Inductor Frequency Model
*   Use model for Frequency Domain simulations
*======================================================================
.subckt XPL2010-563_freq port1 port2 PARAMS: Cpar=2.14pF Ind=56uH
X1 port1 port2 Model1A PARAMS:
+ R1=246
+ R2=4.48
+ C= {Cpar}
+ K1=0.00001
+ K2=27.7
+ K3= {Ind}
+ K4=0.238
+ K5=0.0000101
+ L=5.3064E-05
+ Is=0.35207254
+ a=2.56922488
+ L_Z0=0
+ L_EL=0
+ L_F0=0E6
+ PkZ=52617.7242
.ends XPL2010-563_freq

*======================================================================
* SPICE Model generated by Coilcraft
* Coilcraft Part Number : XPL2010-563
* Inductance = 56uH
*======================================================================
* Model Parameters:
*   Valid Frequency Range = 0.1MHz-20MHz
*   Ambient Temperature = 25 degC
*   Inductor Saturation Model
*   Use model for Time Domain simulations
*======================================================================
.subckt XPL2010-563_sat port1 port2 PARAMS: Cpar=2.09pF Ind=56uH
X1 port1 port2 Model1C PARAMS:
+ R1=246
+ R2=4.48
+ C= {Cpar}
+ K1=0.00001
+ K2=27.7
+ K3= {Ind}
+ K4=0.238
+ K5=0.0000101
+ L=5.3064E-05
+ Is=0.35207254
+ a=2.56922488
+ L_Z0=0
+ L_EL=0
+ L_F0=0E6
+ PkZ=52617.7242
.ends XPL2010-563_sat

*======================================================================
* SPICE Model generated by Coilcraft
* Coilcraft Part Number : XPL2010-683
* Inductance = 68uH
*======================================================================
* Model Parameters:
*   Valid Frequency Range = 0.1MHz-30MHz
*   Ambient Temperature = 25 degC
*   Inductor Frequency Model
*   Use model for Frequency Domain simulations
*======================================================================
.subckt XPL2010-683_freq port1 port2 PARAMS: Cpar=1.59pF Ind=68uH
X1 port1 port2 Model1A PARAMS:
+ R1=258
+ R2=6.14
+ C= {Cpar}
+ K1=0.00001
+ K2=17.9